MODEL 1
REMARK VINA RESULT:    -9.924      0.000      0.000
REMARK INTER + INTRA:         -12.894
REMARK INTER:                 -12.245
REMARK INTRA:                  -0.649
REMARK UNBOUND:                -0.649
REMARK  4 active torsions:
REMARK  status: ('A' for Active; 'I' for Inactive)
REMARK    1  A    between atoms: C_1  and  C_7 
REMARK    2  A    between atoms: C_4  and  O_21 
REMARK    3  A    between atoms: C_9  and  C_14 
REMARK    4  A    between atoms: O_21  and  C_22 
ROOT
HETATM    1  C           0      78.642 185.814 559.366  0.00  0.00    -0.032 A 
HETATM    2  C           0      79.223 184.947 560.292  0.00  0.00     0.012 A 
HETATM    3  C           0      79.824 185.421 561.465  0.00  0.00     0.037 A 
HETATM    4  C           0      79.855 186.799 561.713  0.00  0.00     0.068 A 
HETATM    5  C           0      79.284 187.685 560.781  0.00  0.00     0.037 A 
HETATM    6  C           0      78.688 187.195 559.628  0.00  0.00     0.012 A 
ENDROOT
BRANCH   1   7
HETATM    7  C           0      77.970 185.270 558.130  0.00  0.00     0.160 C 
HETATM    8  C           0      78.603 184.010 557.493  0.00  0.00     0.095 C 
HETATM    9  C           0      77.387 183.186 557.109  0.00  0.00     0.068 C 
HETATM   10  N           0      76.288 183.631 557.622  0.00  0.00    -0.166 NA
HETATM   11  N           0      76.584 184.759 558.387  0.00  0.00    -0.195 N 
HETATM   12  C           0      75.579 185.575 558.726  0.00  0.00     0.202 C 
HETATM   13  N           0      74.739 186.308 559.073  0.00  0.00    -0.170 NA
BRANCH   9  14
HETATM   14  C           0      77.418 181.967 556.295  0.00  0.00    -0.010 A 
HETATM   15  C           0      76.712 180.821 556.700  0.00  0.00     0.015 A 
HETATM   16  C           0      76.733 179.654 555.933  0.00  0.00     0.024 A 
HETATM   17  C           0      77.470 179.631 554.751  0.00  0.00     0.034 A 
HETATM   18  C           0      78.182 180.757 554.326  0.00  0.00     0.024 A 
HETATM   19 Cl           0      77.506 178.169 553.781  0.00  0.00    -0.084 Cl
HETATM   20  C           0      78.153 181.915 555.095  0.00  0.00     0.015 A 
ENDBRANCH   9  14
ENDBRANCH   1   7
BRANCH   4  21
HETATM   21  O           0      80.415 187.377 562.813  0.00  0.00    -0.352 OA
BRANCH  21  22
HETATM   22  C           0      81.842 187.422 562.925  0.00  0.00     0.171 C 
HETATM   23  C           0      82.294 188.812 562.515  0.00  0.00     0.034 C 
ENDBRANCH  21  22
ENDBRANCH   4  21
TORSDOF 4
ENDMDL
