MODEL 1
REMARK VINA RESULT:    -9.958      0.000      0.000
REMARK INTER + INTRA:         -12.921
REMARK INTER:                 -12.286
REMARK INTRA:                  -0.634
REMARK UNBOUND:                -0.634
REMARK  4 active torsions:
REMARK  status: ('A' for Active; 'I' for Inactive)
REMARK    1  A    between atoms: C_1  and  C_7 
REMARK    2  A    between atoms: C_4  and  O_21 
REMARK    3  A    between atoms: C_9  and  C_14 
REMARK    4  A    between atoms: O_21  and  C_22 
ROOT
HETATM    1  C           0      78.650 185.819 559.393  0.00  0.00    -0.032 A 
HETATM    2  C           0      79.305 184.972 560.288  0.00  0.00     0.012 A 
HETATM    3  C           0      79.911 185.461 561.451  0.00  0.00     0.037 A 
HETATM    4  C           0      79.872 186.835 561.722  0.00  0.00     0.068 A 
HETATM    5  C           0      79.226 187.701 560.821  0.00  0.00     0.037 A 
HETATM    6  C           0      78.626 187.196 559.677  0.00  0.00     0.012 A 
ENDROOT
BRANCH   1   7
HETATM    7  C           0      77.975 185.256 558.167  0.00  0.00     0.160 C 
HETATM    8  C           0      78.620 184.001 557.533  0.00  0.00     0.095 C 
HETATM    9  C           0      77.412 183.157 557.166  0.00  0.00     0.068 C 
HETATM   10  N           0      76.311 183.590 557.686  0.00  0.00    -0.166 NA
HETATM   11  N           0      76.598 184.728 558.440  0.00  0.00    -0.195 N 
HETATM   12  C           0      75.585 185.532 558.782  0.00  0.00     0.202 C 
HETATM   13  N           0      74.737 186.254 559.133  0.00  0.00    -0.170 NA
BRANCH   9  14
HETATM   14  C           0      77.453 181.932 556.360  0.00  0.00    -0.010 A 
HETATM   15  C           0      76.791 180.771 556.793  0.00  0.00     0.015 A 
HETATM   16  C           0      76.822 179.599 556.035  0.00  0.00     0.024 A 
HETATM   17  C           0      77.525 179.587 554.832  0.00  0.00     0.034 A 
HETATM   18  C           0      78.193 180.728 554.378  0.00  0.00     0.024 A 
HETATM   19 Cl           0      77.573 178.119 553.872  0.00  0.00    -0.084 Cl
HETATM   20  C           0      78.154 181.891 555.140  0.00  0.00     0.015 A 
ENDBRANCH   9  14
ENDBRANCH   1   7
BRANCH   4  21
HETATM   21  O           0      80.430 187.427 562.815  0.00  0.00    -0.352 OA
BRANCH  21  22
HETATM   22  C           0      81.856 187.525 562.902  0.00  0.00     0.171 C 
HETATM   23  C           0      82.253 188.914 562.436  0.00  0.00     0.034 C 
ENDBRANCH  21  22
ENDBRANCH   4  21
TORSDOF 4
ENDMDL
