MODEL 1
REMARK VINA RESULT:    -9.959      0.000      0.000
REMARK INTER + INTRA:         -12.930
REMARK INTER:                 -12.288
REMARK INTRA:                  -0.643
REMARK UNBOUND:                -0.643
REMARK  4 active torsions:
REMARK  status: ('A' for Active; 'I' for Inactive)
REMARK    1  A    between atoms: C_1  and  C_7 
REMARK    2  A    between atoms: C_4  and  O_21 
REMARK    3  A    between atoms: C_9  and  C_14 
REMARK    4  A    between atoms: O_21  and  C_22 
ROOT
HETATM    1  C           0      78.651 185.795 559.364  0.00  0.00    -0.032 A 
HETATM    2  C           0      79.271 184.936 560.273  0.00  0.00     0.012 A 
HETATM    3  C           0      79.871 185.416 561.444  0.00  0.00     0.037 A 
HETATM    4  C           0      79.862 186.792 561.708  0.00  0.00     0.068 A 
HETATM    5  C           0      79.250 187.669 560.793  0.00  0.00     0.037 A 
HETATM    6  C           0      78.656 187.174 559.642  0.00  0.00     0.012 A 
ENDROOT
BRANCH   1   7
HETATM    7  C           0      77.982 185.244 558.130  0.00  0.00     0.160 C 
HETATM    8  C           0      78.608 183.973 557.510  0.00  0.00     0.095 C 
HETATM    9  C           0      77.388 183.155 557.127  0.00  0.00     0.068 C 
HETATM   10  N           0      76.289 183.613 557.630  0.00  0.00    -0.166 NA
HETATM   11  N           0      76.590 184.746 558.385  0.00  0.00    -0.195 N 
HETATM   12  C           0      75.590 185.574 558.710  0.00  0.00     0.202 C 
HETATM   13  N           0      74.753 186.316 559.046  0.00  0.00    -0.170 NA
BRANCH   9  14
HETATM   14  C           0      77.413 181.927 556.325  0.00  0.00    -0.010 A 
HETATM   15  C           0      76.744 180.773 556.766  0.00  0.00     0.015 A 
HETATM   16  C           0      76.760 179.598 556.012  0.00  0.00     0.024 A 
HETATM   17  C           0      77.457 179.575 554.805  0.00  0.00     0.034 A 
HETATM   18  C           0      78.132 180.710 554.343  0.00  0.00     0.024 A 
HETATM   19 Cl           0      77.486 178.104 553.850  0.00  0.00    -0.084 Cl
HETATM   20  C           0      78.107 181.876 555.101  0.00  0.00     0.015 A 
ENDBRANCH   9  14
ENDBRANCH   1   7
BRANCH   4  21
HETATM   21  O           0      80.416 187.375 562.807  0.00  0.00    -0.352 OA
BRANCH  21  22
HETATM   22  C           0      81.842 187.405 562.934  0.00  0.00     0.171 C 
HETATM   23  C           0      82.318 188.774 562.482  0.00  0.00     0.034 C 
ENDBRANCH  21  22
ENDBRANCH   4  21
TORSDOF 4
ENDMDL
MODEL 2
REMARK VINA RESULT:    -9.574      4.094      8.389
REMARK INTER + INTRA:         -12.455
REMARK INTER:                 -11.789
REMARK INTRA:                  -0.666
REMARK UNBOUND:                -0.643
REMARK  4 active torsions:
REMARK  status: ('A' for Active; 'I' for Inactive)
REMARK    1  A    between atoms: C_1  and  C_7 
REMARK    2  A    between atoms: C_4  and  O_21 
REMARK    3  A    between atoms: C_9  and  C_14 
REMARK    4  A    between atoms: O_21  and  C_22 
ROOT
HETATM    1  C           0      77.328 182.062 557.120  0.00  0.00    -0.032 A 
HETATM    2  C           0      77.968 182.568 555.987  0.00  0.00     0.012 A 
HETATM    3  C           0      78.116 181.802 554.824  0.00  0.00     0.037 A 
HETATM    4  C           0      77.621 180.492 554.796  0.00  0.00     0.068 A 
HETATM    5  C           0      76.984 179.966 555.935  0.00  0.00     0.037 A 
HETATM    6  C           0      76.843 180.743 557.076  0.00  0.00     0.012 A 
ENDROOT
BRANCH   1   7
HETATM    7  C           0      77.152 182.925 558.345  0.00  0.00     0.160 C 
HETATM    8  C           0      78.444 183.457 559.010  0.00  0.00     0.095 C 
HETATM    9  C           0      78.066 184.882 559.373  0.00  0.00     0.068 C 
HETATM   10  N           0      76.961 185.271 558.828  0.00  0.00    -0.166 NA
HETATM   11  N           0      76.456 184.223 558.059  0.00  0.00    -0.195 N 
HETATM   12  C           0      75.172 184.271 557.687  0.00  0.00     0.202 C 
HETATM   13  N           0      74.067 184.274 557.311  0.00  0.00    -0.170 NA
BRANCH   9  14
HETATM   14  C           0      78.874 185.784 560.200  0.00  0.00    -0.010 A 
HETATM   15  C           0      78.881 187.167 559.952  0.00  0.00     0.015 A 
HETATM   16  C           0      79.646 188.035 560.733  0.00  0.00     0.024 A 
HETATM   17  C           0      80.416 187.516 561.772  0.00  0.00     0.034 A 
HETATM   18  C           0      80.428 186.143 562.040  0.00  0.00     0.024 A 
HETATM   19 Cl           0      81.383 188.597 562.758  0.00  0.00    -0.084 Cl
HETATM   20  C           0      79.660 185.287 561.258  0.00  0.00     0.015 A 
ENDBRANCH   9  14
ENDBRANCH   1   7
BRANCH   4  21
HETATM   21  O           0      77.710 179.652 553.728  0.00  0.00    -0.352 OA
BRANCH  21  22
HETATM   22  C           0      76.572 178.861 553.367  0.00  0.00     0.171 C 
HETATM   23  C           0      77.074 177.486 552.963  0.00  0.00     0.034 C 
ENDBRANCH  21  22
ENDBRANCH   4  21
TORSDOF 4
ENDMDL
MODEL 3
REMARK VINA RESULT:    -8.038      4.190      8.499
REMARK INTER + INTRA:         -10.561
REMARK INTER:                 -10.042
REMARK INTRA:                  -0.519
REMARK UNBOUND:                -0.643
REMARK  4 active torsions:
REMARK  status: ('A' for Active; 'I' for Inactive)
REMARK    1  A    between atoms: C_1  and  C_7 
REMARK    2  A    between atoms: C_4  and  O_21 
REMARK    3  A    between atoms: C_9  and  C_14 
REMARK    4  A    between atoms: O_21  and  C_22 
ROOT
HETATM    1  C           0      76.713 181.091 556.652  0.00  0.00    -0.032 A 
HETATM    2  C           0      76.053 179.863 556.605  0.00  0.00     0.012 A 
HETATM    3  C           0      76.066 179.066 555.454  0.00  0.00     0.037 A 
HETATM    4  C           0      76.749 179.512 554.316  0.00  0.00     0.068 A 
HETATM    5  C           0      77.410 180.754 554.346  0.00  0.00     0.037 A 
HETATM    6  C           0      77.389 181.527 555.498  0.00  0.00     0.012 A 
ENDROOT
BRANCH   1   7
HETATM    7  C           0      76.711 181.911 557.918  0.00  0.00     0.160 C 
HETATM    8  C           0      78.069 182.082 558.637  0.00  0.00     0.095 C 
HETATM    9  C           0      78.035 183.536 559.070  0.00  0.00     0.068 C 
HETATM   10  N           0      77.074 184.208 558.525  0.00  0.00    -0.166 NA
HETATM   11  N           0      76.358 183.351 557.690  0.00  0.00    -0.195 N 
HETATM   12  C           0      75.136 183.727 557.295  0.00  0.00     0.202 C 
HETATM   13  N           0      74.077 184.017 556.897  0.00  0.00    -0.170 NA
BRANCH   9  14
HETATM   14  C           0      79.009 184.175 559.962  0.00  0.00    -0.010 A 
HETATM   15  C           0      80.177 183.495 560.347  0.00  0.00     0.015 A 
HETATM   16  C           0      81.112 184.092 561.195  0.00  0.00     0.024 A 
HETATM   17  C           0      80.875 185.382 561.666  0.00  0.00     0.034 A 
HETATM   18  C           0      79.720 186.080 561.299  0.00  0.00     0.024 A 
HETATM   19 Cl           0      82.042 186.141 562.734  0.00  0.00    -0.084 Cl
HETATM   20  C           0      78.796 185.478 560.452  0.00  0.00     0.015 A 
ENDBRANCH   9  14
ENDBRANCH   1   7
BRANCH   4  21
HETATM   21  O           0      76.828 178.829 553.140  0.00  0.00    -0.352 OA
BRANCH  21  22
HETATM   22  C           0      75.657 178.177 552.634  0.00  0.00     0.171 C 
HETATM   23  C           0      75.746 176.709 553.010  0.00  0.00     0.034 C 
ENDBRANCH  21  22
ENDBRANCH   4  21
TORSDOF 4
ENDMDL
MODEL 4
REMARK VINA RESULT:    -7.576      4.676      8.567
REMARK INTER + INTRA:          -9.990
REMARK INTER:                  -9.496
REMARK INTRA:                  -0.493
REMARK UNBOUND:                -0.643
REMARK  4 active torsions:
REMARK  status: ('A' for Active; 'I' for Inactive)
REMARK    1  A    between atoms: C_1  and  C_7 
REMARK    2  A    between atoms: C_4  and  O_21 
REMARK    3  A    between atoms: C_9  and  C_14 
REMARK    4  A    between atoms: O_21  and  C_22 
ROOT
HETATM    1  C           0      77.588 182.344 556.789  0.00  0.00    -0.032 A 
HETATM    2  C           0      78.124 182.116 555.520  0.00  0.00     0.012 A 
HETATM    3  C           0      77.813 180.965 554.788  0.00  0.00     0.037 A 
HETATM    4  C           0      76.950 180.010 555.342  0.00  0.00     0.068 A 
HETATM    5  C           0      76.412 180.222 556.624  0.00  0.00     0.037 A 
HETATM    6  C           0      76.729 181.372 557.332  0.00  0.00     0.012 A 
ENDROOT
BRANCH   1   7
HETATM    7  C           0      77.915 183.612 557.538  0.00  0.00     0.160 C 
HETATM    8  C           0      76.882 184.760 557.444  0.00  0.00     0.095 C 
HETATM    9  C           0      76.858 185.301 558.862  0.00  0.00     0.068 C 
HETATM   10  N           0      77.462 184.535 559.710  0.00  0.00    -0.166 NA
HETATM   11  N           0      77.957 183.425 559.026  0.00  0.00    -0.195 N 
HETATM   12  C           0      78.898 182.683 559.620  0.00  0.00     0.202 C 
HETATM   13  N           0      79.700 181.984 560.102  0.00  0.00    -0.170 NA
BRANCH   9  14
HETATM   14  C           0      76.175 186.527 559.285  0.00  0.00    -0.010 A 
HETATM   15  C           0      76.912 187.642 559.719  0.00  0.00     0.015 A 
HETATM   16  C           0      76.273 188.815 560.124  0.00  0.00     0.024 A 
HETATM   17  C           0      74.881 188.875 560.098  0.00  0.00     0.034 A 
HETATM   18  C           0      74.123 187.780 559.671  0.00  0.00     0.024 A 
HETATM   19 Cl           0      74.067 190.344 560.606  0.00  0.00    -0.084 Cl
HETATM   20  C           0      74.769 186.616 559.268  0.00  0.00     0.015 A 
ENDBRANCH   9  14
ENDBRANCH   1   7
BRANCH   4  21
HETATM   21  O           0      76.579 178.851 554.728  0.00  0.00    -0.352 OA
BRANCH  21  22
HETATM   22  C           0      76.827 178.695 553.327  0.00  0.00     0.171 C 
HETATM   23  C           0      77.008 177.213 553.052  0.00  0.00     0.034 C 
ENDBRANCH  21  22
ENDBRANCH   4  21
TORSDOF 4
ENDMDL
