MODEL 1
REMARK VINA RESULT:    -9.971      0.000      0.000
REMARK INTER + INTRA:         -12.933
REMARK INTER:                 -12.303
REMARK INTRA:                  -0.630
REMARK UNBOUND:                -0.630
REMARK  4 active torsions:
REMARK  status: ('A' for Active; 'I' for Inactive)
REMARK    1  A    between atoms: C_1  and  C_7 
REMARK    2  A    between atoms: C_4  and  O_21 
REMARK    3  A    between atoms: C_9  and  C_14 
REMARK    4  A    between atoms: O_21  and  C_22 
ROOT
HETATM    1  C           0      78.690 185.813 559.387  0.00  0.00    -0.032 A 
HETATM    2  C           0      79.291 184.951 560.305  0.00  0.00     0.012 A 
HETATM    3  C           0      79.889 185.428 561.477  0.00  0.00     0.037 A 
HETATM    4  C           0      79.897 186.805 561.734  0.00  0.00     0.068 A 
HETATM    5  C           0      79.305 187.686 560.811  0.00  0.00     0.037 A 
HETATM    6  C           0      78.712 187.193 559.658  0.00  0.00     0.012 A 
ENDROOT
BRANCH   1   7
HETATM    7  C           0      78.022 185.265 558.150  0.00  0.00     0.160 C 
HETATM    8  C           0      78.644 183.991 557.531  0.00  0.00     0.095 C 
HETATM    9  C           0      77.422 183.179 557.145  0.00  0.00     0.068 C 
HETATM   10  N           0      76.323 183.641 557.645  0.00  0.00    -0.166 NA
HETATM   11  N           0      76.627 184.774 558.401  0.00  0.00    -0.195 N 
HETATM   12  C           0      75.630 185.605 558.724  0.00  0.00     0.202 C 
HETATM   13  N           0      74.795 186.351 559.057  0.00  0.00    -0.170 NA
BRANCH   9  14
HETATM   14  C           0      77.444 181.951 556.343  0.00  0.00    -0.010 A 
HETATM   15  C           0      78.155 181.901 555.133  0.00  0.00     0.015 A 
HETATM   16  C           0      78.184 180.738 554.361  0.00  0.00     0.024 A 
HETATM   17  C           0      77.491 179.613 554.803  0.00  0.00     0.034 A 
HETATM   18  C           0      76.774 179.635 556.003  0.00  0.00     0.024 A 
HETATM   19 Cl           0      77.518 178.146 553.840  0.00  0.00    -0.084 Cl
HETATM   20  C           0      76.754 180.798 556.766  0.00  0.00     0.015 A 
ENDBRANCH   9  14
ENDBRANCH   1   7
BRANCH   4  21
HETATM   21  O           0      80.452 187.386 562.834  0.00  0.00    -0.352 OA
BRANCH  21  22
HETATM   22  C           0      81.878 187.481 562.927  0.00  0.00     0.171 C 
HETATM   23  C           0      82.277 188.881 562.496  0.00  0.00     0.034 C 
ENDBRANCH  21  22
ENDBRANCH   4  21
TORSDOF 4
ENDMDL
