MODEL 1
REMARK VINA RESULT:    -9.967      0.000      0.000
REMARK INTER + INTRA:         -12.923
REMARK INTER:                 -12.298
REMARK INTRA:                  -0.625
REMARK UNBOUND:                -0.625
REMARK  4 active torsions:
REMARK  status: ('A' for Active; 'I' for Inactive)
REMARK    1  A    between atoms: C_1  and  C_7 
REMARK    2  A    between atoms: C_4  and  O_21 
REMARK    3  A    between atoms: C_9  and  C_14 
REMARK    4  A    between atoms: O_21  and  C_22 
ROOT
HETATM    1  C           0      78.580 185.799 559.458  0.00  0.00    -0.032 A 
HETATM    2  C           0      78.524 187.163 559.745  0.00  0.00     0.012 A 
HETATM    3  C           0      79.141 187.700 560.881  0.00  0.00     0.037 A 
HETATM    4  C           0      79.824 186.849 561.761  0.00  0.00     0.068 A 
HETATM    5  C           0      79.877 185.470 561.488  0.00  0.00     0.037 A 
HETATM    6  C           0      79.265 184.958 560.354  0.00  0.00     0.012 A 
ENDROOT
BRANCH   1   7
HETATM    7  C           0      77.936 185.256 558.206  0.00  0.00     0.160 C 
HETATM    8  C           0      78.576 183.990 557.589  0.00  0.00     0.095 C 
HETATM    9  C           0      77.364 183.174 557.176  0.00  0.00     0.068 C 
HETATM   10  N           0      76.255 183.628 557.660  0.00  0.00    -0.166 NA
HETATM   11  N           0      76.540 184.756 558.430  0.00  0.00    -0.195 N 
HETATM   12  C           0      75.533 185.580 558.741  0.00  0.00     0.202 C 
HETATM   13  N           0      74.689 186.319 559.065  0.00  0.00    -0.170 NA
BRANCH   9  14
HETATM   14  C           0      77.407 181.952 556.366  0.00  0.00    -0.010 A 
HETATM   15  C           0      78.092 181.931 555.140  0.00  0.00     0.015 A 
HETATM   16  C           0      78.140 180.774 554.361  0.00  0.00     0.024 A 
HETATM   17  C           0      77.492 179.625 554.810  0.00  0.00     0.034 A 
HETATM   18  C           0      76.802 179.618 556.027  0.00  0.00     0.024 A 
HETATM   19 Cl           0      77.543 178.165 553.838  0.00  0.00    -0.084 Cl
HETATM   20  C           0      76.762 180.775 556.797  0.00  0.00     0.015 A 
ENDBRANCH   9  14
ENDBRANCH   1   7
BRANCH   4  21
HETATM   21  O           0      80.456 187.253 562.897  0.00  0.00    -0.352 OA
BRANCH  21  22
HETATM   22  C           0      81.886 187.326 562.910  0.00  0.00     0.171 C 
HETATM   23  C           0      82.280 188.744 562.538  0.00  0.00     0.034 C 
ENDBRANCH  21  22
ENDBRANCH   4  21
TORSDOF 4
ENDMDL
MODEL 2
REMARK VINA RESULT:    -9.392      1.538      2.659
REMARK INTER + INTRA:         -12.213
REMARK INTER:                 -11.543
REMARK INTRA:                  -0.670
REMARK UNBOUND:                -0.625
REMARK  4 active torsions:
REMARK  status: ('A' for Active; 'I' for Inactive)
REMARK    1  A    between atoms: C_1  and  C_7 
REMARK    2  A    between atoms: C_4  and  O_21 
REMARK    3  A    between atoms: C_9  and  C_14 
REMARK    4  A    between atoms: O_21  and  C_22 
ROOT
HETATM    1  C           0      78.207 184.025 557.957  0.00  0.00    -0.032 A 
HETATM    2  C           0      78.593 183.225 559.034  0.00  0.00     0.012 A 
HETATM    3  C           0      79.239 183.765 560.153  0.00  0.00     0.037 A 
HETATM    4  C           0      79.516 185.137 560.193  0.00  0.00     0.068 A 
HETATM    5  C           0      79.142 185.952 559.108  0.00  0.00     0.037 A 
HETATM    6  C           0      78.498 185.399 558.011  0.00  0.00     0.012 A 
ENDROOT
BRANCH   1   7
HETATM    7  C           0      77.480 183.420 556.781  0.00  0.00     0.160 C 
HETATM    8  C           0      78.129 182.177 556.128  0.00  0.00     0.095 C 
HETATM    9  C           0      76.932 181.287 555.846  0.00  0.00     0.068 C 
HETATM   10  N           0      75.850 181.690 556.425  0.00  0.00    -0.166 NA
HETATM   11  N           0      76.141 182.849 557.144  0.00  0.00    -0.195 N 
HETATM   12  C           0      75.123 183.624 557.535  0.00  0.00     0.202 C 
HETATM   13  N           0      74.272 184.323 557.925  0.00  0.00    -0.170 NA
BRANCH   9  14
HETATM   14  C           0      76.968 180.052 555.057  0.00  0.00    -0.010 A 
HETATM   15  C           0      77.788 178.979 555.445  0.00  0.00     0.015 A 
HETATM   16  C           0      77.830 177.798 554.702  0.00  0.00     0.024 A 
HETATM   17  C           0      77.045 177.688 553.556  0.00  0.00     0.034 A 
HETATM   18  C           0      76.220 178.740 553.146  0.00  0.00     0.024 A 
HETATM   19 Cl           0      77.092 176.209 552.613  0.00  0.00    -0.084 Cl
HETATM   20  C           0      76.184 179.912 553.894  0.00  0.00     0.015 A 
ENDBRANCH   9  14
ENDBRANCH   1   7
BRANCH   4  21
HETATM   21  O           0      80.142 185.773 561.222  0.00  0.00    -0.352 OA
BRANCH  21  22
HETATM   22  C           0      79.645 187.042 561.662  0.00  0.00     0.171 C 
HETATM   23  C           0      80.838 187.896 562.052  0.00  0.00     0.034 C 
ENDBRANCH  21  22
ENDBRANCH   4  21
TORSDOF 4
ENDMDL
