MODEL 1
REMARK VINA RESULT:    -9.969      0.000      0.000
REMARK INTER + INTRA:         -12.921
REMARK INTER:                 -12.300
REMARK INTRA:                  -0.621
REMARK UNBOUND:                -0.621
REMARK  4 active torsions:
REMARK  status: ('A' for Active; 'I' for Inactive)
REMARK    1  A    between atoms: C_1  and  C_7 
REMARK    2  A    between atoms: C_4  and  O_21 
REMARK    3  A    between atoms: C_9  and  C_14 
REMARK    4  A    between atoms: O_21  and  C_22 
ROOT
HETATM    1  C           0      78.664 185.796 559.377  0.00  0.00    -0.032 A 
HETATM    2  C           0      79.326 184.937 560.255  0.00  0.00     0.012 A 
HETATM    3  C           0      79.929 185.408 561.428  0.00  0.00     0.037 A 
HETATM    4  C           0      79.879 186.776 561.725  0.00  0.00     0.068 A 
HETATM    5  C           0      79.225 187.654 560.841  0.00  0.00     0.037 A 
HETATM    6  C           0      78.629 187.167 559.688  0.00  0.00     0.012 A 
ENDROOT
BRANCH   1   7
HETATM    7  C           0      77.993 185.252 558.140  0.00  0.00     0.160 C 
HETATM    8  C           0      78.622 183.988 557.508  0.00  0.00     0.095 C 
HETATM    9  C           0      77.403 183.169 557.122  0.00  0.00     0.068 C 
HETATM   10  N           0      76.304 183.620 557.631  0.00  0.00    -0.166 NA
HETATM   11  N           0      76.603 184.749 558.394  0.00  0.00    -0.195 N 
HETATM   12  C           0      75.602 185.570 558.728  0.00  0.00     0.202 C 
HETATM   13  N           0      74.764 186.307 559.072  0.00  0.00    -0.170 NA
BRANCH   9  14
HETATM   14  C           0      77.430 181.948 556.311  0.00  0.00    -0.010 A 
HETATM   15  C           0      76.720 180.805 556.717  0.00  0.00     0.015 A 
HETATM   16  C           0      76.738 179.636 555.953  0.00  0.00     0.024 A 
HETATM   17  C           0      77.476 179.608 554.772  0.00  0.00     0.034 A 
HETATM   18  C           0      78.192 180.731 554.345  0.00  0.00     0.024 A 
HETATM   19 Cl           0      77.507 178.144 553.805  0.00  0.00    -0.084 Cl
HETATM   20  C           0      78.166 181.891 555.111  0.00  0.00     0.015 A 
ENDBRANCH   9  14
ENDBRANCH   1   7
BRANCH   4  21
HETATM   21  O           0      80.432 187.351 562.829  0.00  0.00    -0.352 OA
BRANCH  21  22
HETATM   22  C           0      81.856 187.471 562.912  0.00  0.00     0.171 C 
HETATM   23  C           0      82.228 188.877 562.477  0.00  0.00     0.034 C 
ENDBRANCH  21  22
ENDBRANCH   4  21
TORSDOF 4
ENDMDL
