REMARK  7 active torsions:
REMARK  status: ('A' for Active; 'I' for Inactive)
REMARK    1  A    between atoms: O_1  and  C_10 
REMARK    2  A    between atoms: C_3  and  C_4 
REMARK    3  A    between atoms: C_3  and  C_5 
REMARK    4  A    between atoms: C_4  and  C_6 
REMARK    5  A    between atoms: C_5  and  C_7 
REMARK    6  A    between atoms: C_6  and  C_8 
REMARK    7  A    between atoms: C_8  and  C_10 
ROOT
HETATM    1  C   UNK     0      -0.943   0.250  -0.022  0.00  0.00     0.010 C 
ENDROOT
BRANCH   1   2
HETATM    2  C   UNK     0       0.398  -0.488  -0.033  0.00  0.00     0.001 C 
BRANCH   2   3
HETATM    3  C   UNK     0       1.647   0.398  -0.011  0.00  0.00     0.000 C 
BRANCH   3   4
HETATM    4  C   UNK     0       2.956  -0.394  -0.001  0.00  0.00    -0.000 C 
BRANCH   4   5
HETATM    5  C   UNK     0       4.167   0.540   0.029  0.00  0.00    -0.005 C 
HETATM    6  C   UNK     0       5.472  -0.240   0.002  0.00  0.00     0.005 C 
ENDBRANCH   4   5
ENDBRANCH   3   4
ENDBRANCH   2   3
ENDBRANCH   1   2
BRANCH   1   7
HETATM    7  C   UNK     0      -2.152  -0.685   0.012  0.00  0.00     0.110 C 
BRANCH   7   8
HETATM    8  C   UNK     0      -3.456   0.080   0.009  0.00  0.00     0.139 C 
HETATM    9  O   UNK     0      -3.565   1.298  -0.002  0.00  0.00    -0.650 OA
BRANCH   8  10
HETATM   10  O   UNK     0      -4.524  -0.760   0.016  0.00  0.00    -0.776 OA
HETATM   11  H   UNK     0      -5.374  -0.270   0.012  0.00  0.00     0.167 HD
ENDBRANCH   8  10
ENDBRANCH   7   8
ENDBRANCH   1   7
TORSDOF 7
