MODEL 1
REMARK VINA RESULT:    -5.621      0.000      0.000
REMARK INTER + INTRA:          -8.054
REMARK INTER:                  -7.758
REMARK INTRA:                  -0.297
REMARK UNBOUND:                -0.297
REMARK  7 active torsions:
REMARK  status: ('A' for Active; 'I' for Inactive)
REMARK    1  A    between atoms: O_1  and  C_10 
REMARK    2  A    between atoms: C_3  and  C_4 
REMARK    3  A    between atoms: C_3  and  C_5 
REMARK    4  A    between atoms: C_4  and  C_6 
REMARK    5  A    between atoms: C_5  and  C_7 
REMARK    6  A    between atoms: C_6  and  C_8 
REMARK    7  A    between atoms: C_8  and  C_10 
ROOT
HETATM    1  C   UNK     0       4.705 -12.347  10.134  0.00  0.00     0.010 C 
ENDROOT
BRANCH   1   2
HETATM    2  C   UNK     0       5.857 -12.746   9.209  0.00  0.00     0.001 C 
BRANCH   2   3
HETATM    3  C   UNK     0       5.494 -13.696   8.063  0.00  0.00     0.000 C 
BRANCH   3   4
HETATM    4  C   UNK     0       6.451 -14.882   7.928  0.00  0.00    -0.000 C 
BRANCH   4   5
HETATM    5  C   UNK     0       5.747 -16.200   8.254  0.00  0.00    -0.005 C 
HETATM    6  C   UNK     0       4.236 -16.058   8.174  0.00  0.00     0.005 C 
ENDBRANCH   4   5
ENDBRANCH   3   4
ENDBRANCH   2   3
ENDBRANCH   1   2
BRANCH   1   7
HETATM    7  C   UNK     0       5.071 -12.395  11.617  0.00  0.00     0.110 C 
BRANCH   7   8
HETATM    8  C   UNK     0       4.592 -11.165  12.356  0.00  0.00     0.139 C 
HETATM    9  O   UNK     0       3.982 -11.166  13.416  0.00  0.00    -0.650 OA
BRANCH   8  10
HETATM   10  O   UNK     0       4.929 -10.027  11.694  0.00  0.00    -0.776 OA
HETATM   11  H   UNK     0       5.717  -9.595  12.089  0.00  0.00     0.167 HD
ENDBRANCH   8  10
ENDBRANCH   7   8
ENDBRANCH   1   7
TORSDOF 7
ENDMDL
MODEL 2
REMARK VINA RESULT:    -5.383      1.309      1.756
REMARK INTER + INTRA:          -7.725
REMARK INTER:                  -7.296
REMARK INTRA:                  -0.429
REMARK UNBOUND:                -0.297
REMARK  7 active torsions:
REMARK  status: ('A' for Active; 'I' for Inactive)
REMARK    1  A    between atoms: O_1  and  C_10 
REMARK    2  A    between atoms: C_3  and  C_4 
REMARK    3  A    between atoms: C_3  and  C_5 
REMARK    4  A    between atoms: C_4  and  C_6 
REMARK    5  A    between atoms: C_5  and  C_7 
REMARK    6  A    between atoms: C_6  and  C_8 
REMARK    7  A    between atoms: C_8  and  C_10 
ROOT
HETATM    1  C   UNK     0       5.347 -12.652  10.112  0.00  0.00     0.010 C 
ENDROOT
BRANCH   1   2
HETATM    2  C   UNK     0       6.466 -12.505   9.079  0.00  0.00     0.001 C 
BRANCH   2   3
HETATM    3  C   UNK     0       7.147 -13.806   8.643  0.00  0.00     0.000 C 
BRANCH   3   4
HETATM    4  C   UNK     0       6.318 -14.624   7.650  0.00  0.00    -0.000 C 
BRANCH   4   5
HETATM    5  C   UNK     0       5.946 -15.988   8.234  0.00  0.00    -0.005 C 
HETATM    6  C   UNK     0       4.440 -16.137   8.382  0.00  0.00     0.005 C 
ENDBRANCH   4   5
ENDBRANCH   3   4
ENDBRANCH   2   3
ENDBRANCH   1   2
BRANCH   1   7
HETATM    7  C   UNK     0       3.997 -12.121   9.627  0.00  0.00     0.110 C 
BRANCH   7   8
HETATM    8  C   UNK     0       3.674 -10.772  10.229  0.00  0.00     0.139 C 
HETATM    9  O   UNK     0       2.749 -10.047   9.890  0.00  0.00    -0.650 OA
BRANCH   8  10
HETATM   10  O   UNK     0       4.546 -10.448  11.219  0.00  0.00    -0.776 OA
HETATM   11  H   UNK     0       4.195  -9.737  11.796  0.00  0.00     0.167 HD
ENDBRANCH   8  10
ENDBRANCH   7   8
ENDBRANCH   1   7
TORSDOF 7
ENDMDL
MODEL 3
REMARK VINA RESULT:    -4.773      2.166      3.264
REMARK INTER + INTRA:          -6.883
REMARK INTER:                  -6.312
REMARK INTRA:                  -0.572
REMARK UNBOUND:                -0.297
REMARK  7 active torsions:
REMARK  status: ('A' for Active; 'I' for Inactive)
REMARK    1  A    between atoms: O_1  and  C_10 
REMARK    2  A    between atoms: C_3  and  C_4 
REMARK    3  A    between atoms: C_3  and  C_5 
REMARK    4  A    between atoms: C_4  and  C_6 
REMARK    5  A    between atoms: C_5  and  C_7 
REMARK    6  A    between atoms: C_6  and  C_8 
REMARK    7  A    between atoms: C_8  and  C_10 
ROOT
HETATM    1  C   UNK     0       5.687 -12.316  10.029  0.00  0.00     0.010 C 
ENDROOT
BRANCH   1   2
HETATM    2  C   UNK     0       6.357 -12.443   8.658  0.00  0.00     0.001 C 
BRANCH   2   3
HETATM    3  C   UNK     0       5.505 -13.083   7.557  0.00  0.00     0.000 C 
BRANCH   3   4
HETATM    4  C   UNK     0       5.388 -12.221   6.299  0.00  0.00    -0.000 C 
BRANCH   4   5
HETATM    5  C   UNK     0       5.382 -10.731   6.648  0.00  0.00    -0.005 C 
HETATM    6  C   UNK     0       3.976 -10.154   6.598  0.00  0.00     0.005 C 
ENDBRANCH   4   5
ENDBRANCH   3   4
ENDBRANCH   2   3
ENDBRANCH   1   2
BRANCH   1   7
HETATM    7  C   UNK     0       4.178 -12.084   9.951  0.00  0.00     0.110 C 
BRANCH   7   8
HETATM    8  C   UNK     0       3.801 -10.683  10.376  0.00  0.00     0.139 C 
HETATM    9  O   UNK     0       2.865 -10.034   9.932  0.00  0.00    -0.650 OA
BRANCH   8  10
HETATM   10  O   UNK     0       4.640 -10.213  11.336  0.00  0.00    -0.776 OA
HETATM   11  H   UNK     0       4.663  -9.233  11.354  0.00  0.00     0.167 HD
ENDBRANCH   8  10
ENDBRANCH   7   8
ENDBRANCH   1   7
TORSDOF 7
ENDMDL
MODEL 4
REMARK VINA RESULT:    -4.748     20.579     21.484
REMARK INTER + INTRA:          -6.849
REMARK INTER:                  -6.432
REMARK INTRA:                  -0.417
REMARK UNBOUND:                -0.297
REMARK  7 active torsions:
REMARK  status: ('A' for Active; 'I' for Inactive)
REMARK    1  A    between atoms: O_1  and  C_10 
REMARK    2  A    between atoms: C_3  and  C_4 
REMARK    3  A    between atoms: C_3  and  C_5 
REMARK    4  A    between atoms: C_4  and  C_6 
REMARK    5  A    between atoms: C_5  and  C_7 
REMARK    6  A    between atoms: C_6  and  C_8 
REMARK    7  A    between atoms: C_8  and  C_10 
ROOT
HETATM    1  C   UNK     0      -5.943   4.330   1.057  0.00  0.00     0.010 C 
ENDROOT
BRANCH   1   2
HETATM    2  C   UNK     0      -5.450   4.476  -0.384  0.00  0.00     0.001 C 
BRANCH   2   3
HETATM    3  C   UNK     0      -5.309   3.172  -1.176  0.00  0.00     0.000 C 
BRANCH   3   4
HETATM    4  C   UNK     0      -4.051   3.121  -2.046  0.00  0.00    -0.000 C 
BRANCH   4   5
HETATM    5  C   UNK     0      -2.826   2.720  -1.222  0.00  0.00    -0.005 C 
HETATM    6  C   UNK     0      -1.893   3.900  -1.001  0.00  0.00     0.005 C 
ENDBRANCH   4   5
ENDBRANCH   3   4
ENDBRANCH   2   3
ENDBRANCH   1   2
BRANCH   1   7
HETATM    7  C   UNK     0      -4.938   3.638   1.978  0.00  0.00     0.110 C 
BRANCH   7   8
HETATM    8  C   UNK     0      -5.611   2.660   2.914  0.00  0.00     0.139 C 
HETATM    9  O   UNK     0      -5.069   2.078   3.843  0.00  0.00    -0.650 OA
BRANCH   8  10
HETATM   10  O   UNK     0      -6.923   2.496   2.600  0.00  0.00    -0.776 OA
HETATM   11  H   UNK     0      -7.041   2.159   1.687  0.00  0.00     0.167 HD
ENDBRANCH   8  10
ENDBRANCH   7   8
ENDBRANCH   1   7
TORSDOF 7
ENDMDL
MODEL 5
REMARK VINA RESULT:    -4.686      4.223      5.197
REMARK INTER + INTRA:          -6.763
REMARK INTER:                  -6.564
REMARK INTRA:                  -0.199
REMARK UNBOUND:                -0.297
REMARK  7 active torsions:
REMARK  status: ('A' for Active; 'I' for Inactive)
REMARK    1  A    between atoms: O_1  and  C_10 
REMARK    2  A    between atoms: C_3  and  C_4 
REMARK    3  A    between atoms: C_3  and  C_5 
REMARK    4  A    between atoms: C_4  and  C_6 
REMARK    5  A    between atoms: C_5  and  C_7 
REMARK    6  A    between atoms: C_6  and  C_8 
REMARK    7  A    between atoms: C_8  and  C_10 
ROOT
HETATM    1  C   UNK     0       4.639 -10.831   6.794  0.00  0.00     0.010 C 
ENDROOT
BRANCH   1   2
HETATM    2  C   UNK     0       5.636 -11.861   7.330  0.00  0.00     0.001 C 
BRANCH   2   3
HETATM    3  C   UNK     0       5.098 -13.284   7.502  0.00  0.00     0.000 C 
BRANCH   3   4
HETATM    4  C   UNK     0       5.900 -14.123   8.500  0.00  0.00    -0.000 C 
BRANCH   4   5
HETATM    5  C   UNK     0       5.904 -15.600   8.102  0.00  0.00    -0.005 C 
HETATM    6  C   UNK     0       4.605 -16.286   8.494  0.00  0.00     0.005 C 
ENDBRANCH   4   5
ENDBRANCH   3   4
ENDBRANCH   2   3
ENDBRANCH   1   2
BRANCH   1   7
HETATM    7  C   UNK     0       4.550 -10.808   5.268  0.00  0.00     0.110 C 
BRANCH   7   8
HETATM    8  C   UNK     0       5.907 -10.622   4.627  0.00  0.00     0.139 C 
HETATM    9  O   UNK     0       6.451 -11.417   3.874  0.00  0.00    -0.650 OA
BRANCH   8  10
HETATM   10  O   UNK     0       6.469  -9.439   4.989  0.00  0.00    -0.776 OA
HETATM   11  H   UNK     0       7.447  -9.464   4.920  0.00  0.00     0.167 HD
ENDBRANCH   8  10
ENDBRANCH   7   8
ENDBRANCH   1   7
TORSDOF 7
ENDMDL
MODEL 6
REMARK VINA RESULT:    -4.564     20.790     21.800
REMARK INTER + INTRA:          -6.595
REMARK INTER:                  -6.200
REMARK INTRA:                  -0.395
REMARK UNBOUND:                -0.297
REMARK  7 active torsions:
REMARK  status: ('A' for Active; 'I' for Inactive)
REMARK    1  A    between atoms: O_1  and  C_10 
REMARK    2  A    between atoms: C_3  and  C_4 
REMARK    3  A    between atoms: C_3  and  C_5 
REMARK    4  A    between atoms: C_4  and  C_6 
REMARK    5  A    between atoms: C_5  and  C_7 
REMARK    6  A    between atoms: C_6  and  C_8 
REMARK    7  A    between atoms: C_8  and  C_10 
ROOT
HETATM    1  C   UNK     0      -4.472   3.169  -0.048  0.00  0.00     0.010 C 
ENDROOT
BRANCH   1   2
HETATM    2  C   UNK     0      -2.955   2.970  -0.020  0.00  0.00     0.001 C 
BRANCH   2   3
HETATM    3  C   UNK     0      -2.188   3.514  -1.230  0.00  0.00     0.000 C 
BRANCH   3   4
HETATM    4  C   UNK     0      -1.198   4.625  -0.875  0.00  0.00    -0.000 C 
BRANCH   4   5
HETATM    5  C   UNK     0      -1.011   4.735   0.639  0.00  0.00    -0.005 C 
HETATM    6  C   UNK     0      -0.659   6.156   1.054  0.00  0.00     0.005 C 
ENDBRANCH   4   5
ENDBRANCH   3   4
ENDBRANCH   2   3
ENDBRANCH   1   2
BRANCH   1   7
HETATM    7  C   UNK     0      -4.915   4.540   0.463  0.00  0.00     0.110 C 
BRANCH   7   8
HETATM    8  C   UNK     0      -5.494   4.462   1.857  0.00  0.00     0.139 C 
HETATM    9  O   UNK     0      -5.053   3.782   2.773  0.00  0.00    -0.650 OA
BRANCH   8  10
HETATM   10  O   UNK     0      -6.589   5.257   1.985  0.00  0.00    -0.776 OA
HETATM   11  H   UNK     0      -6.960   5.224   2.893  0.00  0.00     0.167 HD
ENDBRANCH   8  10
ENDBRANCH   7   8
ENDBRANCH   1   7
TORSDOF 7
ENDMDL
MODEL 7
REMARK VINA RESULT:    -4.560     21.304     22.297
REMARK INTER + INTRA:          -6.590
REMARK INTER:                  -6.367
REMARK INTRA:                  -0.223
REMARK UNBOUND:                -0.297
REMARK  7 active torsions:
REMARK  status: ('A' for Active; 'I' for Inactive)
REMARK    1  A    between atoms: O_1  and  C_10 
REMARK    2  A    between atoms: C_3  and  C_4 
REMARK    3  A    between atoms: C_3  and  C_5 
REMARK    4  A    between atoms: C_4  and  C_6 
REMARK    5  A    between atoms: C_5  and  C_7 
REMARK    6  A    between atoms: C_6  and  C_8 
REMARK    7  A    between atoms: C_8  and  C_10 
ROOT
HETATM    1  C   UNK     0      -3.960   2.718   0.751  0.00  0.00     0.010 C 
ENDROOT
BRANCH   1   2
HETATM    2  C   UNK     0      -3.747   3.228  -0.677  0.00  0.00     0.001 C 
BRANCH   2   3
HETATM    3  C   UNK     0      -4.997   3.283  -1.559  0.00  0.00     0.000 C 
BRANCH   3   4
HETATM    4  C   UNK     0      -5.625   4.676  -1.640  0.00  0.00    -0.000 C 
BRANCH   4   5
HETATM    5  C   UNK     0      -4.652   5.687  -2.249  0.00  0.00    -0.005 C 
HETATM    6  C   UNK     0      -4.907   7.091  -1.725  0.00  0.00     0.005 C 
ENDBRANCH   4   5
ENDBRANCH   3   4
ENDBRANCH   2   3
ENDBRANCH   1   2
BRANCH   1   7
HETATM    7  C   UNK     0      -4.880   3.609   1.585  0.00  0.00     0.110 C 
BRANCH   7   8
HETATM    8  C   UNK     0      -5.690   2.808   2.579  0.00  0.00     0.139 C 
HETATM    9  O   UNK     0      -5.243   2.235   3.562  0.00  0.00    -0.650 OA
BRANCH   8  10
HETATM   10  O   UNK     0      -7.009   2.800   2.251  0.00  0.00    -0.776 OA
HETATM   11  H   UNK     0      -7.562   2.434   2.974  0.00  0.00     0.167 HD
ENDBRANCH   8  10
ENDBRANCH   7   8
ENDBRANCH   1   7
TORSDOF 7
ENDMDL
MODEL 8
REMARK VINA RESULT:    -4.544      3.334      5.178
REMARK INTER + INTRA:          -6.568
REMARK INTER:                  -6.223
REMARK INTRA:                  -0.345
REMARK UNBOUND:                -0.297
REMARK  7 active torsions:
REMARK  status: ('A' for Active; 'I' for Inactive)
REMARK    1  A    between atoms: O_1  and  C_10 
REMARK    2  A    between atoms: C_3  and  C_4 
REMARK    3  A    between atoms: C_3  and  C_5 
REMARK    4  A    between atoms: C_4  and  C_6 
REMARK    5  A    between atoms: C_5  and  C_7 
REMARK    6  A    between atoms: C_6  and  C_8 
REMARK    7  A    between atoms: C_8  and  C_10 
ROOT
HETATM    1  C   UNK     0       6.476 -13.627   8.262  0.00  0.00     0.010 C 
ENDROOT
BRANCH   1   2
HETATM    2  C   UNK     0       6.128 -12.585   9.329  0.00  0.00     0.001 C 
BRANCH   2   3
HETATM    3  C   UNK     0       4.653 -12.183   9.413  0.00  0.00     0.000 C 
BRANCH   3   4
HETATM    4  C   UNK     0       4.175 -11.913  10.841  0.00  0.00    -0.000 C 
BRANCH   4   5
HETATM    5  C   UNK     0       4.995 -12.710  11.858  0.00  0.00    -0.005 C 
HETATM    6  C   UNK     0       5.326 -11.873  13.084  0.00  0.00     0.005 C 
ENDBRANCH   4   5
ENDBRANCH   3   4
ENDBRANCH   2   3
ENDBRANCH   1   2
BRANCH   1   7
HETATM    7  C   UNK     0       5.257 -14.376   7.724  0.00  0.00     0.110 C 
BRANCH   7   8
HETATM    8  C   UNK     0       5.213 -15.806   8.213  0.00  0.00     0.139 C 
HETATM    9  O   UNK     0       4.212 -16.393   8.600  0.00  0.00    -0.650 OA
BRANCH   8  10
HETATM   10  O   UNK     0       6.442 -16.383   8.170  0.00  0.00    -0.776 OA
HETATM   11  H   UNK     0       6.447 -17.265   8.601  0.00  0.00     0.167 HD
ENDBRANCH   8  10
ENDBRANCH   7   8
ENDBRANCH   1   7
TORSDOF 7
ENDMDL
MODEL 9
REMARK VINA RESULT:    -4.417      3.890      5.483
REMARK INTER + INTRA:          -6.392
REMARK INTER:                  -6.213
REMARK INTRA:                  -0.179
REMARK UNBOUND:                -0.297
REMARK  7 active torsions:
REMARK  status: ('A' for Active; 'I' for Inactive)
REMARK    1  A    between atoms: O_1  and  C_10 
REMARK    2  A    between atoms: C_3  and  C_4 
REMARK    3  A    between atoms: C_3  and  C_5 
REMARK    4  A    between atoms: C_4  and  C_6 
REMARK    5  A    between atoms: C_5  and  C_7 
REMARK    6  A    between atoms: C_6  and  C_8 
REMARK    7  A    between atoms: C_8  and  C_10 
ROOT
HETATM    1  C   UNK     0       5.534 -11.811   6.834  0.00  0.00     0.010 C 
ENDROOT
BRANCH   1   2
HETATM    2  C   UNK     0       5.147 -12.662   8.046  0.00  0.00     0.001 C 
BRANCH   2   3
HETATM    3  C   UNK     0       5.751 -12.230   9.385  0.00  0.00     0.000 C 
BRANCH   3   4
HETATM    4  C   UNK     0       4.708 -11.759  10.401  0.00  0.00    -0.000 C 
BRANCH   4   5
HETATM    5  C   UNK     0       5.324 -11.600  11.792  0.00  0.00    -0.005 C 
HETATM    6  C   UNK     0       5.088 -12.833  12.649  0.00  0.00     0.005 C 
ENDBRANCH   4   5
ENDBRANCH   3   4
ENDBRANCH   2   3
ENDBRANCH   1   2
BRANCH   1   7
HETATM    7  C   UNK     0       4.647 -10.580   6.646  0.00  0.00     0.110 C 
BRANCH   7   8
HETATM    8  C   UNK     0       5.130  -9.706   5.510  0.00  0.00     0.139 C 
HETATM    9  O   UNK     0       4.421  -8.998   4.808  0.00  0.00    -0.650 OA
BRANCH   8  10
HETATM   10  O   UNK     0       6.477  -9.794   5.355  0.00  0.00    -0.776 OA
HETATM   11  H   UNK     0       6.723 -10.441   4.660  0.00  0.00     0.167 HD
ENDBRANCH   8  10
ENDBRANCH   7   8
ENDBRANCH   1   7
TORSDOF 7
ENDMDL
