MODEL 1
REMARK VINA RESULT:    -5.558      0.000      0.000
REMARK INTER + INTRA:          -7.957
REMARK INTER:                  -7.670
REMARK INTRA:                  -0.286
REMARK UNBOUND:                -0.286
REMARK  7 active torsions:
REMARK  status: ('A' for Active; 'I' for Inactive)
REMARK    1  A    between atoms: O_1  and  C_10 
REMARK    2  A    between atoms: C_3  and  C_4 
REMARK    3  A    between atoms: C_3  and  C_5 
REMARK    4  A    between atoms: C_4  and  C_6 
REMARK    5  A    between atoms: C_5  and  C_7 
REMARK    6  A    between atoms: C_6  and  C_8 
REMARK    7  A    between atoms: C_8  and  C_10 
ROOT
HETATM    1  C   UNK     0       5.714 -11.975  10.206  0.00  0.00     0.010 C 
ENDROOT
BRANCH   1   2
HETATM    2  C   UNK     0       4.905 -12.203   8.926  0.00  0.00     0.001 C 
BRANCH   2   3
HETATM    3  C   UNK     0       4.638 -13.665   8.558  0.00  0.00     0.000 C 
BRANCH   3   4
HETATM    4  C   UNK     0       5.788 -14.320   7.791  0.00  0.00    -0.000 C 
BRANCH   4   5
HETATM    5  C   UNK     0       5.912 -15.804   8.141  0.00  0.00    -0.005 C 
HETATM    6  C   UNK     0       4.568 -16.397   8.535  0.00  0.00     0.005 C 
ENDBRANCH   4   5
ENDBRANCH   3   4
ENDBRANCH   2   3
ENDBRANCH   1   2
BRANCH   1   7
HETATM    7  C   UNK     0       4.966 -12.373  11.478  0.00  0.00     0.110 C 
BRANCH   7   8
HETATM    8  C   UNK     0       4.573 -11.167  12.301  0.00  0.00     0.139 C 
HETATM    9  O   UNK     0       4.005 -11.199  13.383  0.00  0.00    -0.650 OA
BRANCH   8  10
HETATM   10  O   UNK     0       4.935 -10.009  11.688  0.00  0.00    -0.776 OA
HETATM   11  H   UNK     0       4.302  -9.283  11.875  0.00  0.00     0.167 HD
ENDBRANCH   8  10
ENDBRANCH   7   8
ENDBRANCH   1   7
TORSDOF 7
ENDMDL
MODEL 2
REMARK VINA RESULT:    -5.222      1.369      1.686
REMARK INTER + INTRA:          -7.492
REMARK INTER:                  -7.197
REMARK INTRA:                  -0.295
REMARK UNBOUND:                -0.286
REMARK  7 active torsions:
REMARK  status: ('A' for Active; 'I' for Inactive)
REMARK    1  A    between atoms: O_1  and  C_10 
REMARK    2  A    between atoms: C_3  and  C_4 
REMARK    3  A    between atoms: C_3  and  C_5 
REMARK    4  A    between atoms: C_4  and  C_6 
REMARK    5  A    between atoms: C_5  and  C_7 
REMARK    6  A    between atoms: C_6  and  C_8 
REMARK    7  A    between atoms: C_8  and  C_10 
ROOT
HETATM    1  C   UNK     0       5.785 -12.106   9.530  0.00  0.00     0.010 C 
ENDROOT
BRANCH   1   2
HETATM    2  C   UNK     0       6.024 -12.545   8.083  0.00  0.00     0.001 C 
BRANCH   2   3
HETATM    3  C   UNK     0       7.052 -13.663   7.886  0.00  0.00     0.000 C 
BRANCH   3   4
HETATM    4  C   UNK     0       6.461 -15.066   8.028  0.00  0.00    -0.000 C 
BRANCH   4   5
HETATM    5  C   UNK     0       4.945 -15.052   7.818  0.00  0.00    -0.005 C 
HETATM    6  C   UNK     0       4.285 -16.270   8.445  0.00  0.00     0.005 C 
ENDBRANCH   4   5
ENDBRANCH   3   4
ENDBRANCH   2   3
ENDBRANCH   1   2
BRANCH   1   7
HETATM    7  C   UNK     0       4.308 -12.093   9.926  0.00  0.00     0.110 C 
BRANCH   7   8
HETATM    8  C   UNK     0       3.929 -10.819  10.646  0.00  0.00     0.139 C 
HETATM    9  O   UNK     0       4.440 -10.408  11.679  0.00  0.00    -0.650 OA
BRANCH   8  10
HETATM   10  O   UNK     0       2.934 -10.160   9.998  0.00  0.00    -0.776 OA
HETATM   11  H   UNK     0       3.119  -9.199   9.925  0.00  0.00     0.167 HD
ENDBRANCH   8  10
ENDBRANCH   7   8
ENDBRANCH   1   7
TORSDOF 7
ENDMDL
MODEL 3
REMARK VINA RESULT:    -4.919      1.493      2.607
REMARK INTER + INTRA:          -7.074
REMARK INTER:                  -6.758
REMARK INTRA:                  -0.316
REMARK UNBOUND:                -0.286
REMARK  7 active torsions:
REMARK  status: ('A' for Active; 'I' for Inactive)
REMARK    1  A    between atoms: O_1  and  C_10 
REMARK    2  A    between atoms: C_3  and  C_4 
REMARK    3  A    between atoms: C_3  and  C_5 
REMARK    4  A    between atoms: C_4  and  C_6 
REMARK    5  A    between atoms: C_5  and  C_7 
REMARK    6  A    between atoms: C_6  and  C_8 
REMARK    7  A    between atoms: C_8  and  C_10 
ROOT
HETATM    1  C   UNK     0       5.088 -12.237  10.085  0.00  0.00     0.010 C 
ENDROOT
BRANCH   1   2
HETATM    2  C   UNK     0       4.892 -13.523   9.279  0.00  0.00     0.001 C 
BRANCH   2   3
HETATM    3  C   UNK     0       5.260 -13.443   7.795  0.00  0.00     0.000 C 
BRANCH   3   4
HETATM    4  C   UNK     0       6.020 -12.168   7.423  0.00  0.00    -0.000 C 
BRANCH   4   5
HETATM    5  C   UNK     0       5.402 -11.494   6.197  0.00  0.00    -0.005 C 
HETATM    6  C   UNK     0       4.203 -10.639   6.577  0.00  0.00     0.005 C 
ENDBRANCH   4   5
ENDBRANCH   3   4
ENDBRANCH   2   3
ENDBRANCH   1   2
BRANCH   1   7
HETATM    7  C   UNK     0       5.047 -12.454  11.598  0.00  0.00     0.110 C 
BRANCH   7   8
HETATM    8  C   UNK     0       4.587 -11.215  12.332  0.00  0.00     0.139 C 
HETATM    9  O   UNK     0       3.999 -11.202  13.405  0.00  0.00    -0.650 OA
BRANCH   8  10
HETATM   10  O   UNK     0       4.912 -10.085  11.651  0.00  0.00    -0.776 OA
HETATM   11  H   UNK     0       5.400  -9.447  12.214  0.00  0.00     0.167 HD
ENDBRANCH   8  10
ENDBRANCH   7   8
ENDBRANCH   1   7
TORSDOF 7
ENDMDL
MODEL 4
REMARK VINA RESULT:    -4.803     20.935     22.329
REMARK INTER + INTRA:          -6.914
REMARK INTER:                  -6.283
REMARK INTRA:                  -0.631
REMARK UNBOUND:                -0.286
REMARK  7 active torsions:
REMARK  status: ('A' for Active; 'I' for Inactive)
REMARK    1  A    between atoms: O_1  and  C_10 
REMARK    2  A    between atoms: C_3  and  C_4 
REMARK    3  A    between atoms: C_3  and  C_5 
REMARK    4  A    between atoms: C_4  and  C_6 
REMARK    5  A    between atoms: C_5  and  C_7 
REMARK    6  A    between atoms: C_6  and  C_8 
REMARK    7  A    between atoms: C_8  and  C_10 
ROOT
HETATM    1  C   UNK     0      -2.675   2.758  -0.999  0.00  0.00     0.010 C 
ENDROOT
BRANCH   1   2
HETATM    2  C   UNK     0      -3.865   2.961  -1.940  0.00  0.00     0.001 C 
BRANCH   2   3
HETATM    3  C   UNK     0      -5.202   3.277  -1.264  0.00  0.00     0.000 C 
BRANCH   3   4
HETATM    4  C   UNK     0      -5.508   4.775  -1.189  0.00  0.00    -0.000 C 
BRANCH   4   5
HETATM    5  C   UNK     0      -4.808   5.539  -2.313  0.00  0.00    -0.005 C 
HETATM    6  C   UNK     0      -4.134   6.800  -1.793  0.00  0.00     0.005 C 
ENDBRANCH   4   5
ENDBRANCH   3   4
ENDBRANCH   2   3
ENDBRANCH   1   2
BRANCH   1   7
HETATM    7  C   UNK     0      -1.803   4.004  -0.843  0.00  0.00     0.110 C 
BRANCH   7   8
HETATM    8  C   UNK     0      -1.794   4.510   0.582  0.00  0.00     0.139 C 
HETATM    9  O   UNK     0      -2.766   4.938   1.189  0.00  0.00    -0.650 OA
BRANCH   8  10
HETATM   10  O   UNK     0      -0.553   4.432   1.129  0.00  0.00    -0.776 OA
HETATM   11  H   UNK     0      -0.413   3.580   1.596  0.00  0.00     0.167 HD
ENDBRANCH   8  10
ENDBRANCH   7   8
ENDBRANCH   1   7
TORSDOF 7
ENDMDL
MODEL 5
REMARK VINA RESULT:    -4.678     20.217     21.431
REMARK INTER + INTRA:          -6.742
REMARK INTER:                  -6.307
REMARK INTRA:                  -0.435
REMARK UNBOUND:                -0.286
REMARK  7 active torsions:
REMARK  status: ('A' for Active; 'I' for Inactive)
REMARK    1  A    between atoms: O_1  and  C_10 
REMARK    2  A    between atoms: C_3  and  C_4 
REMARK    3  A    between atoms: C_3  and  C_5 
REMARK    4  A    between atoms: C_4  and  C_6 
REMARK    5  A    between atoms: C_5  and  C_7 
REMARK    6  A    between atoms: C_6  and  C_8 
REMARK    7  A    between atoms: C_8  and  C_10 
ROOT
HETATM    1  C   UNK     0      -5.578   4.274   1.289  0.00  0.00     0.010 C 
ENDROOT
BRANCH   1   2
HETATM    2  C   UNK     0      -4.568   5.331   0.836  0.00  0.00     0.001 C 
BRANCH   2   3
HETATM    3  C   UNK     0      -3.773   4.995  -0.429  0.00  0.00     0.000 C 
BRANCH   3   4
HETATM    4  C   UNK     0      -4.653   4.586  -1.612  0.00  0.00    -0.000 C 
BRANCH   4   5
HETATM    5  C   UNK     0      -4.413   3.126  -2.000  0.00  0.00    -0.005 C 
HETATM    6  C   UNK     0      -3.032   2.656  -1.572  0.00  0.00     0.005 C 
ENDBRANCH   4   5
ENDBRANCH   3   4
ENDBRANCH   2   3
ENDBRANCH   1   2
BRANCH   1   7
HETATM    7  C   UNK     0      -4.932   2.948   1.690  0.00  0.00     0.110 C 
BRANCH   7   8
HETATM    8  C   UNK     0      -5.521   2.399   2.970  0.00  0.00     0.139 C 
HETATM    9  O   UNK     0      -4.880   1.993   3.930  0.00  0.00    -0.650 OA
BRANCH   8  10
HETATM   10  O   UNK     0      -6.879   2.411   2.936  0.00  0.00    -0.776 OA
HETATM   11  H   UNK     0      -7.249   1.513   2.796  0.00  0.00     0.167 HD
ENDBRANCH   8  10
ENDBRANCH   7   8
ENDBRANCH   1   7
TORSDOF 7
ENDMDL
MODEL 6
REMARK VINA RESULT:    -4.616      3.117      5.039
REMARK INTER + INTRA:          -6.656
REMARK INTER:                  -6.423
REMARK INTRA:                  -0.233
REMARK UNBOUND:                -0.286
REMARK  7 active torsions:
REMARK  status: ('A' for Active; 'I' for Inactive)
REMARK    1  A    between atoms: O_1  and  C_10 
REMARK    2  A    between atoms: C_3  and  C_4 
REMARK    3  A    between atoms: C_3  and  C_5 
REMARK    4  A    between atoms: C_4  and  C_6 
REMARK    5  A    between atoms: C_5  and  C_7 
REMARK    6  A    between atoms: C_6  and  C_8 
REMARK    7  A    between atoms: C_8  and  C_10 
ROOT
HETATM    1  C   UNK     0       5.115 -14.110   8.712  0.00  0.00     0.010 C 
ENDROOT
BRANCH   1   2
HETATM    2  C   UNK     0       5.191 -12.924   9.677  0.00  0.00     0.001 C 
BRANCH   2   3
HETATM    3  C   UNK     0       3.916 -12.084   9.802  0.00  0.00     0.000 C 
BRANCH   3   4
HETATM    4  C   UNK     0       3.841 -11.280  11.101  0.00  0.00    -0.000 C 
BRANCH   4   5
HETATM    5  C   UNK     0       5.217 -11.159  11.758  0.00  0.00    -0.005 C 
HETATM    6  C   UNK     0       5.217 -11.742  13.162  0.00  0.00     0.005 C 
ENDBRANCH   4   5
ENDBRANCH   3   4
ENDBRANCH   2   3
ENDBRANCH   1   2
BRANCH   1   7
HETATM    7  C   UNK     0       6.444 -14.420   8.024  0.00  0.00     0.110 C 
BRANCH   7   8
HETATM    8  C   UNK     0       7.120 -13.167   7.513  0.00  0.00     0.139 C 
HETATM    9  O   UNK     0       6.650 -12.392   6.692  0.00  0.00    -0.650 OA
BRANCH   8  10
HETATM   10  O   UNK     0       8.339 -12.992   8.086  0.00  0.00    -0.776 OA
HETATM   11  H   UNK     0       8.581 -13.745   8.667  0.00  0.00     0.167 HD
ENDBRANCH   8  10
ENDBRANCH   7   8
ENDBRANCH   1   7
TORSDOF 7
ENDMDL
MODEL 7
REMARK VINA RESULT:    -4.503     21.009     22.077
REMARK INTER + INTRA:          -6.500
REMARK INTER:                  -5.933
REMARK INTRA:                  -0.567
REMARK UNBOUND:                -0.286
REMARK  7 active torsions:
REMARK  status: ('A' for Active; 'I' for Inactive)
REMARK    1  A    between atoms: O_1  and  C_10 
REMARK    2  A    between atoms: C_3  and  C_4 
REMARK    3  A    between atoms: C_3  and  C_5 
REMARK    4  A    between atoms: C_4  and  C_6 
REMARK    5  A    between atoms: C_5  and  C_7 
REMARK    6  A    between atoms: C_6  and  C_8 
REMARK    7  A    between atoms: C_8  and  C_10 
ROOT
HETATM    1  C   UNK     0      -5.002   3.177  -0.248  0.00  0.00     0.010 C 
ENDROOT
BRANCH   1   2
HETATM    2  C   UNK     0      -4.050   3.425  -1.421  0.00  0.00     0.001 C 
BRANCH   2   3
HETATM    3  C   UNK     0      -2.585   3.045  -1.182  0.00  0.00     0.000 C 
BRANCH   3   4
HETATM    4  C   UNK     0      -1.809   4.088  -0.376  0.00  0.00    -0.000 C 
BRANCH   4   5
HETATM    5  C   UNK     0      -2.035   5.496  -0.929  0.00  0.00    -0.005 C 
HETATM    6  C   UNK     0      -2.494   6.454   0.159  0.00  0.00     0.005 C 
ENDBRANCH   4   5
ENDBRANCH   3   4
ENDBRANCH   2   3
ENDBRANCH   1   2
BRANCH   1   7
HETATM    7  C   UNK     0      -5.635   4.456   0.303  0.00  0.00     0.110 C 
BRANCH   7   8
HETATM    8  C   UNK     0      -5.269   4.686   1.751  0.00  0.00     0.139 C 
HETATM    9  O   UNK     0      -4.782   3.853   2.502  0.00  0.00    -0.650 OA
BRANCH   8  10
HETATM   10  O   UNK     0      -5.545   5.960   2.136  0.00  0.00    -0.776 OA
HETATM   11  H   UNK     0      -6.340   6.313   1.684  0.00  0.00     0.167 HD
ENDBRANCH   8  10
ENDBRANCH   7   8
ENDBRANCH   1   7
TORSDOF 7
ENDMDL
MODEL 8
REMARK VINA RESULT:    -4.436      4.418      5.586
REMARK INTER + INTRA:          -6.407
REMARK INTER:                  -6.210
REMARK INTRA:                  -0.197
REMARK UNBOUND:                -0.286
REMARK  7 active torsions:
REMARK  status: ('A' for Active; 'I' for Inactive)
REMARK    1  A    between atoms: O_1  and  C_10 
REMARK    2  A    between atoms: C_3  and  C_4 
REMARK    3  A    between atoms: C_3  and  C_5 
REMARK    4  A    between atoms: C_4  and  C_6 
REMARK    5  A    between atoms: C_5  and  C_7 
REMARK    6  A    between atoms: C_6  and  C_8 
REMARK    7  A    between atoms: C_8  and  C_10 
ROOT
HETATM    1  C   UNK     0       4.782 -11.197   6.066  0.00  0.00     0.010 C 
ENDROOT
BRANCH   1   2
HETATM    2  C   UNK     0       5.526 -12.299   6.824  0.00  0.00     0.001 C 
BRANCH   2   3
HETATM    3  C   UNK     0       5.325 -12.318   8.342  0.00  0.00     0.000 C 
BRANCH   3   4
HETATM    4  C   UNK     0       4.697 -13.614   8.859  0.00  0.00    -0.000 C 
BRANCH   4   5
HETATM    5  C   UNK     0       5.269 -14.833   8.132  0.00  0.00    -0.005 C 
HETATM    6  C   UNK     0       4.309 -16.011   8.181  0.00  0.00     0.005 C 
ENDBRANCH   4   5
ENDBRANCH   3   4
ENDBRANCH   2   3
ENDBRANCH   1   2
BRANCH   1   7
HETATM    7  C   UNK     0       5.076 -11.185   4.566  0.00  0.00     0.110 C 
BRANCH   7   8
HETATM    8  C   UNK     0       5.324  -9.785   4.052  0.00  0.00     0.139 C 
HETATM    9  O   UNK     0       4.689  -8.789   4.369  0.00  0.00    -0.650 OA
BRANCH   8  10
HETATM   10  O   UNK     0       6.363  -9.755   3.177  0.00  0.00    -0.776 OA
HETATM   11  H   UNK     0       6.729  -8.850   3.076  0.00  0.00     0.167 HD
ENDBRANCH   8  10
ENDBRANCH   7   8
ENDBRANCH   1   7
TORSDOF 7
ENDMDL
MODEL 9
REMARK VINA RESULT:    -4.430     20.135     21.723
REMARK INTER + INTRA:          -6.400
REMARK INTER:                  -6.231
REMARK INTRA:                  -0.168
REMARK UNBOUND:                -0.286
REMARK  7 active torsions:
REMARK  status: ('A' for Active; 'I' for Inactive)
REMARK    1  A    between atoms: O_1  and  C_10 
REMARK    2  A    between atoms: C_3  and  C_4 
REMARK    3  A    between atoms: C_3  and  C_5 
REMARK    4  A    between atoms: C_4  and  C_6 
REMARK    5  A    between atoms: C_5  and  C_7 
REMARK    6  A    between atoms: C_6  and  C_8 
REMARK    7  A    between atoms: C_8  and  C_10 
ROOT
HETATM    1  C   UNK     0       0.103 -19.529 -10.573  0.00  0.00     0.010 C 
ENDROOT
BRANCH   1   2
HETATM    2  C   UNK     0       0.759 -18.365  -9.825  0.00  0.00     0.001 C 
BRANCH   2   3
HETATM    3  C   UNK     0       0.103 -16.995 -10.017  0.00  0.00     0.000 C 
BRANCH   3   4
HETATM    4  C   UNK     0      -0.255 -16.301  -8.701  0.00  0.00    -0.000 C 
BRANCH   4   5
HETATM    5  C   UNK     0      -1.687 -15.765  -8.730  0.00  0.00    -0.005 C 
HETATM    6  C   UNK     0      -1.817 -14.481  -7.926  0.00  0.00     0.005 C 
ENDBRANCH   4   5
ENDBRANCH   3   4
ENDBRANCH   2   3
ENDBRANCH   1   2
BRANCH   1   7
HETATM    7  C   UNK     0      -0.280 -20.697  -9.665  0.00  0.00     0.110 C 
BRANCH   7   8
HETATM    8  C   UNK     0       0.777 -21.778  -9.661  0.00  0.00     0.139 C 
HETATM    9  O   UNK     0       1.492 -22.069  -8.712  0.00  0.00    -0.650 OA
BRANCH   8  10
HETATM   10  O   UNK     0       0.845 -22.410 -10.862  0.00  0.00    -0.776 OA
HETATM   11  H   UNK     0       0.259 -21.992 -11.528  0.00  0.00     0.167 HD
ENDBRANCH   8  10
ENDBRANCH   7   8
ENDBRANCH   1   7
TORSDOF 7
ENDMDL
