MODEL 1
REMARK VINA RESULT:    -5.448      0.000      0.000
REMARK INTER + INTRA:          -7.852
REMARK INTER:                  -7.519
REMARK INTRA:                  -0.333
REMARK UNBOUND:                -0.333
REMARK  7 active torsions:
REMARK  status: ('A' for Active; 'I' for Inactive)
REMARK    1  A    between atoms: O_1  and  C_10 
REMARK    2  A    between atoms: C_3  and  C_4 
REMARK    3  A    between atoms: C_3  and  C_5 
REMARK    4  A    between atoms: C_4  and  C_6 
REMARK    5  A    between atoms: C_5  and  C_7 
REMARK    6  A    between atoms: C_6  and  C_8 
REMARK    7  A    between atoms: C_8  and  C_10 
ROOT
HETATM    1  C   UNK     0       4.270 -12.360  10.089  0.00  0.00     0.010 C 
ENDROOT
BRANCH   1   2
HETATM    2  C   UNK     0       5.224 -12.339   8.892  0.00  0.00     0.001 C 
BRANCH   2   3
HETATM    3  C   UNK     0       5.176 -13.567   7.978  0.00  0.00     0.000 C 
BRANCH   3   4
HETATM    4  C   UNK     0       6.309 -14.562   8.235  0.00  0.00    -0.000 C 
BRANCH   4   5
HETATM    5  C   UNK     0       5.811 -16.005   8.132  0.00  0.00    -0.005 C 
HETATM    6  C   UNK     0       4.295 -16.079   8.230  0.00  0.00     0.005 C 
ENDBRANCH   4   5
ENDBRANCH   3   4
ENDBRANCH   2   3
ENDBRANCH   1   2
BRANCH   1   7
HETATM    7  C   UNK     0       4.978 -12.559  11.429  0.00  0.00     0.110 C 
BRANCH   7   8
HETATM    8  C   UNK     0       4.293 -11.803  12.545  0.00  0.00     0.139 C 
HETATM    9  O   UNK     0       4.338 -10.592  12.715  0.00  0.00    -0.650 OA
BRANCH   8  10
HETATM   10  O   UNK     0       3.600 -12.640  13.359  0.00  0.00    -0.776 OA
HETATM   11  H   UNK     0       2.717 -12.860  12.991  0.00  0.00     0.167 HD
ENDBRANCH   8  10
ENDBRANCH   7   8
ENDBRANCH   1   7
TORSDOF 7
ENDMDL
MODEL 2
REMARK VINA RESULT:    -4.720      3.348      4.984
REMARK INTER + INTRA:          -6.848
REMARK INTER:                  -6.489
REMARK INTRA:                  -0.358
REMARK UNBOUND:                -0.333
REMARK  7 active torsions:
REMARK  status: ('A' for Active; 'I' for Inactive)
REMARK    1  A    between atoms: O_1  and  C_10 
REMARK    2  A    between atoms: C_3  and  C_4 
REMARK    3  A    between atoms: C_3  and  C_5 
REMARK    4  A    between atoms: C_4  and  C_6 
REMARK    5  A    between atoms: C_5  and  C_7 
REMARK    6  A    between atoms: C_6  and  C_8 
REMARK    7  A    between atoms: C_8  and  C_10 
ROOT
HETATM    1  C   UNK     0       4.862 -12.673   8.118  0.00  0.00     0.010 C 
ENDROOT
BRANCH   1   2
HETATM    2  C   UNK     0       4.606 -11.504   9.072  0.00  0.00     0.001 C 
BRANCH   2   3
HETATM    3  C   UNK     0       5.309 -11.585  10.430  0.00  0.00     0.000 C 
BRANCH   3   4
HETATM    4  C   UNK     0       5.215 -12.966  11.083  0.00  0.00    -0.000 C 
BRANCH   4   5
HETATM    5  C   UNK     0       5.170 -12.855  12.608  0.00  0.00    -0.005 C 
HETATM    6  C   UNK     0       4.675 -11.487  13.052  0.00  0.00     0.005 C 
ENDBRANCH   4   5
ENDBRANCH   3   4
ENDBRANCH   2   3
ENDBRANCH   1   2
BRANCH   1   7
HETATM    7  C   UNK     0       6.188 -12.564   7.365  0.00  0.00     0.110 C 
BRANCH   7   8
HETATM    8  C   UNK     0       7.237 -13.491   7.935  0.00  0.00     0.139 C 
HETATM    9  O   UNK     0       7.051 -14.650   8.278  0.00  0.00    -0.650 OA
BRANCH   8  10
HETATM   10  O   UNK     0       8.447 -12.878   8.023  0.00  0.00    -0.776 OA
HETATM   11  H   UNK     0       9.017 -13.290   8.706  0.00  0.00     0.167 HD
ENDBRANCH   8  10
ENDBRANCH   7   8
ENDBRANCH   1   7
TORSDOF 7
ENDMDL
MODEL 3
REMARK VINA RESULT:    -4.680      2.178      2.891
REMARK INTER + INTRA:          -6.792
REMARK INTER:                  -6.655
REMARK INTRA:                  -0.137
REMARK UNBOUND:                -0.333
REMARK  7 active torsions:
REMARK  status: ('A' for Active; 'I' for Inactive)
REMARK    1  A    between atoms: O_1  and  C_10 
REMARK    2  A    between atoms: C_3  and  C_4 
REMARK    3  A    between atoms: C_3  and  C_5 
REMARK    4  A    between atoms: C_4  and  C_6 
REMARK    5  A    between atoms: C_5  and  C_7 
REMARK    6  A    between atoms: C_6  and  C_8 
REMARK    7  A    between atoms: C_8  and  C_10 
ROOT
HETATM    1  C   UNK     0       4.985 -12.890  10.553  0.00  0.00     0.010 C 
ENDROOT
BRANCH   1   2
HETATM    2  C   UNK     0       5.655 -11.889   9.609  0.00  0.00     0.001 C 
BRANCH   2   3
HETATM    3  C   UNK     0       4.826 -11.460   8.395  0.00  0.00     0.000 C 
BRANCH   3   4
HETATM    4  C   UNK     0       5.406 -11.936   7.062  0.00  0.00    -0.000 C 
BRANCH   4   5
HETATM    5  C   UNK     0       4.820 -11.147   5.890  0.00  0.00    -0.005 C 
HETATM    6  C   UNK     0       5.669 -11.297   4.638  0.00  0.00     0.005 C 
ENDBRANCH   4   5
ENDBRANCH   3   4
ENDBRANCH   2   3
ENDBRANCH   1   2
BRANCH   1   7
HETATM    7  C   UNK     0       5.349 -12.677  12.023  0.00  0.00     0.110 C 
BRANCH   7   8
HETATM    8  C   UNK     0       4.336 -11.809  12.734  0.00  0.00     0.139 C 
HETATM    9  O   UNK     0       4.288 -10.588  12.685  0.00  0.00    -0.650 OA
BRANCH   8  10
HETATM   10  O   UNK     0       3.457 -12.557  13.451  0.00  0.00    -0.776 OA
HETATM   11  H   UNK     0       2.542 -12.477  13.105  0.00  0.00     0.167 HD
ENDBRANCH   8  10
ENDBRANCH   7   8
ENDBRANCH   1   7
TORSDOF 7
ENDMDL
MODEL 4
REMARK VINA RESULT:    -4.654     20.846     22.021
REMARK INTER + INTRA:          -6.756
REMARK INTER:                  -6.345
REMARK INTRA:                  -0.411
REMARK UNBOUND:                -0.333
REMARK  7 active torsions:
REMARK  status: ('A' for Active; 'I' for Inactive)
REMARK    1  A    between atoms: O_1  and  C_10 
REMARK    2  A    between atoms: C_3  and  C_4 
REMARK    3  A    between atoms: C_3  and  C_5 
REMARK    4  A    between atoms: C_4  and  C_6 
REMARK    5  A    between atoms: C_5  and  C_7 
REMARK    6  A    between atoms: C_6  and  C_8 
REMARK    7  A    between atoms: C_8  and  C_10 
ROOT
HETATM    1  C   UNK     0      -5.330   3.327  -0.462  0.00  0.00     0.010 C 
ENDROOT
BRANCH   1   2
HETATM    2  C   UNK     0      -4.460   3.303  -1.721  0.00  0.00     0.001 C 
BRANCH   2   3
HETATM    3  C   UNK     0      -3.022   2.812  -1.528  0.00  0.00     0.000 C 
BRANCH   3   4
HETATM    4  C   UNK     0      -2.524   2.934  -0.087  0.00  0.00    -0.000 C 
BRANCH   4   5
HETATM    5  C   UNK     0      -1.764   4.244   0.126  0.00  0.00    -0.005 C 
HETATM    6  C   UNK     0      -1.060   4.692  -1.146  0.00  0.00     0.005 C 
ENDBRANCH   4   5
ENDBRANCH   3   4
ENDBRANCH   2   3
ENDBRANCH   1   2
BRANCH   1   7
HETATM    7  C   UNK     0      -5.514   4.728   0.124  0.00  0.00     0.110 C 
BRANCH   7   8
HETATM    8  C   UNK     0      -5.575   4.703   1.634  0.00  0.00     0.139 C 
HETATM    9  O   UNK     0      -4.781   4.131   2.368  0.00  0.00    -0.650 OA
BRANCH   8  10
HETATM   10  O   UNK     0      -6.638   5.411   2.099  0.00  0.00    -0.776 OA
HETATM   11  H   UNK     0      -6.369   6.072   2.773  0.00  0.00     0.167 HD
ENDBRANCH   8  10
ENDBRANCH   7   8
ENDBRANCH   1   7
TORSDOF 7
ENDMDL
MODEL 5
REMARK VINA RESULT:    -4.618      2.177      2.418
REMARK INTER + INTRA:          -6.706
REMARK INTER:                  -6.448
REMARK INTRA:                  -0.258
REMARK UNBOUND:                -0.333
REMARK  7 active torsions:
REMARK  status: ('A' for Active; 'I' for Inactive)
REMARK    1  A    between atoms: O_1  and  C_10 
REMARK    2  A    between atoms: C_3  and  C_4 
REMARK    3  A    between atoms: C_3  and  C_5 
REMARK    4  A    between atoms: C_4  and  C_6 
REMARK    5  A    between atoms: C_5  and  C_7 
REMARK    6  A    between atoms: C_6  and  C_8 
REMARK    7  A    between atoms: C_8  and  C_10 
ROOT
HETATM    1  C   UNK     0       5.058 -12.218   7.782  0.00  0.00     0.010 C 
ENDROOT
BRANCH   1   2
HETATM    2  C   UNK     0       6.505 -12.381   8.255  0.00  0.00     0.001 C 
BRANCH   2   3
HETATM    3  C   UNK     0       6.921 -13.800   8.652  0.00  0.00     0.000 C 
BRANCH   3   4
HETATM    4  C   UNK     0       6.400 -14.877   7.699  0.00  0.00    -0.000 C 
BRANCH   4   5
HETATM    5  C   UNK     0       5.647 -15.970   8.458  0.00  0.00    -0.005 C 
HETATM    6  C   UNK     0       4.184 -16.025   8.048  0.00  0.00     0.005 C 
ENDBRANCH   4   5
ENDBRANCH   3   4
ENDBRANCH   2   3
ENDBRANCH   1   2
BRANCH   1   7
HETATM    7  C   UNK     0       4.444 -10.868   8.155  0.00  0.00     0.110 C 
BRANCH   7   8
HETATM    8  C   UNK     0       3.633 -10.952   9.429  0.00  0.00     0.139 C 
HETATM    9  O   UNK     0       2.969 -10.044   9.908  0.00  0.00    -0.650 OA
BRANCH   8  10
HETATM   10  O   UNK     0       3.724 -12.184   9.995  0.00  0.00    -0.776 OA
HETATM   11  H   UNK     0       3.031 -12.325  10.675  0.00  0.00     0.167 HD
ENDBRANCH   8  10
ENDBRANCH   7   8
ENDBRANCH   1   7
TORSDOF 7
ENDMDL
MODEL 6
REMARK VINA RESULT:    -4.599      4.297      5.322
REMARK INTER + INTRA:          -6.679
REMARK INTER:                  -6.386
REMARK INTRA:                  -0.294
REMARK UNBOUND:                -0.333
REMARK  7 active torsions:
REMARK  status: ('A' for Active; 'I' for Inactive)
REMARK    1  A    between atoms: O_1  and  C_10 
REMARK    2  A    between atoms: C_3  and  C_4 
REMARK    3  A    between atoms: C_3  and  C_5 
REMARK    4  A    between atoms: C_4  and  C_6 
REMARK    5  A    between atoms: C_5  and  C_7 
REMARK    6  A    between atoms: C_6  and  C_8 
REMARK    7  A    between atoms: C_8  and  C_10 
ROOT
HETATM    1  C   UNK     0       4.974 -10.912   7.126  0.00  0.00     0.010 C 
ENDROOT
BRANCH   1   2
HETATM    2  C   UNK     0       5.807 -12.079   7.663  0.00  0.00     0.001 C 
BRANCH   2   3
HETATM    3  C   UNK     0       5.557 -12.459   9.125  0.00  0.00     0.000 C 
BRANCH   3   4
HETATM    4  C   UNK     0       4.972 -13.862   9.299  0.00  0.00    -0.000 C 
BRANCH   4   5
HETATM    5  C   UNK     0       5.086 -14.672   8.007  0.00  0.00    -0.005 C 
HETATM    6  C   UNK     0       4.262 -15.949   8.077  0.00  0.00     0.005 C 
ENDBRANCH   4   5
ENDBRANCH   3   4
ENDBRANCH   2   3
ENDBRANCH   1   2
BRANCH   1   7
HETATM    7  C   UNK     0       4.683 -11.011   5.628  0.00  0.00     0.110 C 
BRANCH   7   8
HETATM    8  C   UNK     0       5.236  -9.827   4.868  0.00  0.00     0.139 C 
HETATM    9  O   UNK     0       4.624  -9.162   4.044  0.00  0.00    -0.650 OA
BRANCH   8  10
HETATM   10  O   UNK     0       6.525  -9.573   5.215  0.00  0.00    -0.776 OA
HETATM   11  H   UNK     0       7.077 -10.385   5.190  0.00  0.00     0.167 HD
ENDBRANCH   8  10
ENDBRANCH   7   8
ENDBRANCH   1   7
TORSDOF 7
ENDMDL
MODEL 7
REMARK VINA RESULT:    -4.544     20.422     21.456
REMARK INTER + INTRA:          -6.604
REMARK INTER:                  -6.232
REMARK INTRA:                  -0.372
REMARK UNBOUND:                -0.333
REMARK  7 active torsions:
REMARK  status: ('A' for Active; 'I' for Inactive)
REMARK    1  A    between atoms: O_1  and  C_10 
REMARK    2  A    between atoms: C_3  and  C_4 
REMARK    3  A    between atoms: C_3  and  C_5 
REMARK    4  A    between atoms: C_4  and  C_6 
REMARK    5  A    between atoms: C_5  and  C_7 
REMARK    6  A    between atoms: C_6  and  C_8 
REMARK    7  A    between atoms: C_8  and  C_10 
ROOT
HETATM    1  C   UNK     0      -2.745 -15.497  -8.926  0.00  0.00     0.010 C 
ENDROOT
BRANCH   1   2
HETATM    2  C   UNK     0      -1.514 -15.462  -8.017  0.00  0.00     0.001 C 
BRANCH   2   3
HETATM    3  C   UNK     0      -0.244 -16.097  -8.589  0.00  0.00     0.000 C 
BRANCH   3   4
HETATM    4  C   UNK     0      -0.350 -16.439 -10.077  0.00  0.00    -0.000 C 
BRANCH   4   5
HETATM    5  C   UNK     0      -0.080 -17.924 -10.324  0.00  0.00    -0.005 C 
HETATM    6  C   UNK     0       0.980 -18.462  -9.376  0.00  0.00     0.005 C 
ENDBRANCH   4   5
ENDBRANCH   3   4
ENDBRANCH   2   3
ENDBRANCH   1   2
BRANCH   1   7
HETATM    7  C   UNK     0      -3.149 -14.122  -9.459  0.00  0.00     0.110 C 
BRANCH   7   8
HETATM    8  C   UNK     0      -3.105 -14.068 -10.969  0.00  0.00     0.139 C 
HETATM    9  O   UNK     0      -2.831 -13.080 -11.636  0.00  0.00    -0.650 OA
BRANCH   8  10
HETATM   10  O   UNK     0      -3.407 -15.273 -11.518  0.00  0.00    -0.776 OA
HETATM   11  H   UNK     0      -2.659 -15.904 -11.448  0.00  0.00     0.167 HD
ENDBRANCH   8  10
ENDBRANCH   7   8
ENDBRANCH   1   7
TORSDOF 7
ENDMDL
MODEL 8
REMARK VINA RESULT:    -4.529     20.301     21.424
REMARK INTER + INTRA:          -6.583
REMARK INTER:                  -6.171
REMARK INTRA:                  -0.412
REMARK UNBOUND:                -0.333
REMARK  7 active torsions:
REMARK  status: ('A' for Active; 'I' for Inactive)
REMARK    1  A    between atoms: O_1  and  C_10 
REMARK    2  A    between atoms: C_3  and  C_4 
REMARK    3  A    between atoms: C_3  and  C_5 
REMARK    4  A    between atoms: C_4  and  C_6 
REMARK    5  A    between atoms: C_5  and  C_7 
REMARK    6  A    between atoms: C_6  and  C_8 
REMARK    7  A    between atoms: C_8  and  C_10 
ROOT
HETATM    1  C   UNK     0      -5.605   4.273   1.235  0.00  0.00     0.010 C 
ENDROOT
BRANCH   1   2
HETATM    2  C   UNK     0      -4.700   5.308   0.562  0.00  0.00     0.001 C 
BRANCH   2   3
HETATM    3  C   UNK     0      -4.250   4.974  -0.863  0.00  0.00     0.000 C 
BRANCH   3   4
HETATM    4  C   UNK     0      -2.745   5.140  -1.081  0.00  0.00    -0.000 C 
BRANCH   4   5
HETATM    5  C   UNK     0      -1.999   3.833  -0.804  0.00  0.00    -0.005 C 
HETATM    6  C   UNK     0      -2.663   2.655  -1.499  0.00  0.00     0.005 C 
ENDBRANCH   4   5
ENDBRANCH   3   4
ENDBRANCH   2   3
ENDBRANCH   1   2
BRANCH   1   7
HETATM    7  C   UNK     0      -4.983   2.878   1.309  0.00  0.00     0.110 C 
BRANCH   7   8
HETATM    8  C   UNK     0      -5.301   2.188   2.616  0.00  0.00     0.139 C 
HETATM    9  O   UNK     0      -6.297   2.384   3.299  0.00  0.00    -0.650 OA
BRANCH   8  10
HETATM   10  O   UNK     0      -4.333   1.297   2.956  0.00  0.00    -0.776 OA
HETATM   11  H   UNK     0      -4.116   0.694   2.213  0.00  0.00     0.167 HD
ENDBRANCH   8  10
ENDBRANCH   7   8
ENDBRANCH   1   7
TORSDOF 7
ENDMDL
MODEL 9
REMARK VINA RESULT:    -4.449     21.404     22.662
REMARK INTER + INTRA:          -6.473
REMARK INTER:                  -5.836
REMARK INTRA:                  -0.638
REMARK UNBOUND:                -0.333
REMARK  7 active torsions:
REMARK  status: ('A' for Active; 'I' for Inactive)
REMARK    1  A    between atoms: O_1  and  C_10 
REMARK    2  A    between atoms: C_3  and  C_4 
REMARK    3  A    between atoms: C_3  and  C_5 
REMARK    4  A    between atoms: C_4  and  C_6 
REMARK    5  A    between atoms: C_5  and  C_7 
REMARK    6  A    between atoms: C_6  and  C_8 
REMARK    7  A    between atoms: C_8  and  C_10 
ROOT
HETATM    1  C   UNK     0      -2.954   2.955   0.195  0.00  0.00     0.010 C 
ENDROOT
BRANCH   1   2
HETATM    2  C   UNK     0      -2.110   3.806  -0.756  0.00  0.00     0.001 C 
BRANCH   2   3
HETATM    3  C   UNK     0      -1.814   5.234  -0.289  0.00  0.00     0.000 C 
BRANCH   3   4
HETATM    4  C   UNK     0      -2.275   6.307  -1.278  0.00  0.00    -0.000 C 
BRANCH   4   5
HETATM    5  C   UNK     0      -3.733   6.698  -1.029  0.00  0.00    -0.005 C 
HETATM    6  C   UNK     0      -4.640   6.203  -2.145  0.00  0.00     0.005 C 
ENDBRANCH   4   5
ENDBRANCH   3   4
ENDBRANCH   2   3
ENDBRANCH   1   2
BRANCH   1   7
HETATM    7  C   UNK     0      -4.459   3.113  -0.020  0.00  0.00     0.110 C 
BRANCH   7   8
HETATM    8  C   UNK     0      -5.092   3.978   1.046  0.00  0.00     0.139 C 
HETATM    9  O   UNK     0      -4.606   4.227   2.141  0.00  0.00    -0.650 OA
BRANCH   8  10
HETATM   10  O   UNK     0      -6.294   4.466   0.640  0.00  0.00    -0.776 OA
HETATM   11  H   UNK     0      -6.347   4.540  -0.337  0.00  0.00     0.167 HD
ENDBRANCH   8  10
ENDBRANCH   7   8
ENDBRANCH   1   7
TORSDOF 7
ENDMDL
