MODEL 1
REMARK VINA RESULT:    -9.976      0.000      0.000
REMARK INTER + INTRA:         -12.950
REMARK INTER:                 -12.309
REMARK INTRA:                  -0.641
REMARK UNBOUND:                -0.641
REMARK  4 active torsions:
REMARK  status: ('A' for Active; 'I' for Inactive)
REMARK    1  A    between atoms: C_1  and  C_7 
REMARK    2  A    between atoms: C_4  and  O_21 
REMARK    3  A    between atoms: C_9  and  C_14 
REMARK    4  A    between atoms: O_21  and  C_22 
ROOT
HETATM    1  C           0      78.698 185.814 559.422  0.00  0.00    -0.032 A 
HETATM    2  C           0      79.307 184.943 560.325  0.00  0.00     0.012 A 
HETATM    3  C           0      79.916 185.409 561.497  0.00  0.00     0.037 A 
HETATM    4  C           0      79.925 186.783 561.768  0.00  0.00     0.068 A 
HETATM    5  C           0      79.323 187.673 560.859  0.00  0.00     0.037 A 
HETATM    6  C           0      78.721 187.191 559.706  0.00  0.00     0.012 A 
ENDROOT
BRANCH   1   7
HETATM    7  C           0      78.019 185.277 558.186  0.00  0.00     0.160 C 
HETATM    8  C           0      78.638 184.012 557.547  0.00  0.00     0.095 C 
HETATM    9  C           0      77.414 183.200 557.164  0.00  0.00     0.068 C 
HETATM   10  N           0      76.319 183.655 557.679  0.00  0.00    -0.166 NA
HETATM   11  N           0      76.627 184.780 558.445  0.00  0.00    -0.195 N 
HETATM   12  C           0      75.631 185.605 558.786  0.00  0.00     0.202 C 
HETATM   13  N           0      74.798 186.345 559.135  0.00  0.00    -0.170 NA
BRANCH   9  14
HETATM   14  C           0      77.431 181.981 556.349  0.00  0.00    -0.010 A 
HETATM   15  C           0      78.122 181.950 555.126  0.00  0.00     0.015 A 
HETATM   16  C           0      78.146 180.795 554.342  0.00  0.00     0.024 A 
HETATM   17  C           0      77.469 179.660 554.783  0.00  0.00     0.034 A 
HETATM   18  C           0      76.773 179.664 555.996  0.00  0.00     0.024 A 
HETATM   19 Cl           0      77.490 178.204 553.804  0.00  0.00    -0.084 Cl
HETATM   20  C           0      76.757 180.819 556.771  0.00  0.00     0.015 A 
ENDBRANCH   9  14
ENDBRANCH   1   7
BRANCH   4  21
HETATM   21  O           0      80.489 187.353 562.869  0.00  0.00    -0.352 OA
BRANCH  21  22
HETATM   22  C           0      81.916 187.398 562.975  0.00  0.00     0.171 C 
HETATM   23  C           0      82.368 188.785 562.552  0.00  0.00     0.034 C 
ENDBRANCH  21  22
ENDBRANCH   4  21
TORSDOF 4
ENDMDL
MODEL 2
REMARK VINA RESULT:    -9.570      4.093      8.395
REMARK INTER + INTRA:         -12.449
REMARK INTER:                 -11.796
REMARK INTRA:                  -0.654
REMARK UNBOUND:                -0.641
REMARK  4 active torsions:
REMARK  status: ('A' for Active; 'I' for Inactive)
REMARK    1  A    between atoms: C_1  and  C_7 
REMARK    2  A    between atoms: C_4  and  O_21 
REMARK    3  A    between atoms: C_9  and  C_14 
REMARK    4  A    between atoms: O_21  and  C_22 
ROOT
HETATM    1  C           0      77.394 182.056 557.137  0.00  0.00    -0.032 A 
HETATM    2  C           0      77.990 182.577 555.988  0.00  0.00     0.012 A 
HETATM    3  C           0      78.128 181.813 554.822  0.00  0.00     0.037 A 
HETATM    4  C           0      77.668 180.490 554.808  0.00  0.00     0.068 A 
HETATM    5  C           0      77.075 179.950 555.964  0.00  0.00     0.037 A 
HETATM    6  C           0      76.942 180.724 557.107  0.00  0.00     0.012 A 
ENDROOT
BRANCH   1   7
HETATM    7  C           0      77.227 182.916 558.366  0.00  0.00     0.160 C 
HETATM    8  C           0      78.523 183.435 559.031  0.00  0.00     0.095 C 
HETATM    9  C           0      78.159 184.861 559.400  0.00  0.00     0.068 C 
HETATM   10  N           0      77.056 185.262 558.858  0.00  0.00    -0.166 NA
HETATM   11  N           0      76.542 184.220 558.085  0.00  0.00    -0.195 N 
HETATM   12  C           0      75.258 184.281 557.715  0.00  0.00     0.202 C 
HETATM   13  N           0      74.152 184.296 557.340  0.00  0.00    -0.170 NA
BRANCH   9  14
HETATM   14  C           0      78.976 185.753 560.229  0.00  0.00    -0.010 A 
HETATM   15  C           0      79.734 185.241 561.296  0.00  0.00     0.015 A 
HETATM   16  C           0      80.515 186.080 562.092  0.00  0.00     0.024 A 
HETATM   17  C           0      80.537 187.447 561.822  0.00  0.00     0.034 A 
HETATM   18  C           0      79.792 187.983 560.767  0.00  0.00     0.024 A 
HETATM   19 Cl           0      81.514 188.511 562.818  0.00  0.00    -0.084 Cl
HETATM   20  C           0      79.018 187.138 559.978  0.00  0.00     0.015 A 
ENDBRANCH   9  14
ENDBRANCH   1   7
BRANCH   4  21
HETATM   21  O           0      77.752 179.651 553.738  0.00  0.00    -0.352 OA
BRANCH  21  22
HETATM   22  C           0      76.588 178.920 553.334  0.00  0.00     0.171 C 
HETATM   23  C           0      77.021 177.500 553.017  0.00  0.00     0.034 C 
ENDBRANCH  21  22
ENDBRANCH   4  21
TORSDOF 4
ENDMDL
MODEL 3
REMARK VINA RESULT:    -9.488      1.618      2.591
REMARK INTER + INTRA:         -12.347
REMARK INTER:                 -11.701
REMARK INTRA:                  -0.646
REMARK UNBOUND:                -0.641
REMARK  4 active torsions:
REMARK  status: ('A' for Active; 'I' for Inactive)
REMARK    1  A    between atoms: C_1  and  C_7 
REMARK    2  A    between atoms: C_4  and  O_21 
REMARK    3  A    between atoms: C_9  and  C_14 
REMARK    4  A    between atoms: O_21  and  C_22 
ROOT
HETATM    1  C           0      78.287 183.834 557.908  0.00  0.00    -0.032 A 
HETATM    2  C           0      78.569 183.033 559.015  0.00  0.00     0.012 A 
HETATM    3  C           0      79.234 183.540 560.137  0.00  0.00     0.037 A 
HETATM    4  C           0      79.638 184.881 560.150  0.00  0.00     0.068 A 
HETATM    5  C           0      79.370 185.697 559.036  0.00  0.00     0.037 A 
HETATM    6  C           0      78.704 185.177 557.935  0.00  0.00     0.012 A 
ENDROOT
BRANCH   1   7
HETATM    7  C           0      77.536 183.268 556.728  0.00  0.00     0.160 C 
HETATM    8  C           0      78.157 182.030 556.040  0.00  0.00     0.095 C 
HETATM    9  C           0      76.942 181.166 555.752  0.00  0.00     0.068 C 
HETATM   10  N           0      75.873 181.574 556.353  0.00  0.00    -0.166 NA
HETATM   11  N           0      76.192 182.712 557.094  0.00  0.00    -0.195 N 
HETATM   12  C           0      75.192 183.494 557.515  0.00  0.00     0.202 C 
HETATM   13  N           0      74.358 184.198 557.931  0.00  0.00    -0.170 NA
BRANCH   9  14
HETATM   14  C           0      76.948 179.948 554.935  0.00  0.00    -0.010 A 
HETATM   15  C           0      76.134 179.850 553.794  0.00  0.00     0.015 A 
HETATM   16  C           0      76.131 178.696 553.008  0.00  0.00     0.024 A 
HETATM   17  C           0      76.948 177.626 553.369  0.00  0.00     0.034 A 
HETATM   18  C           0      77.767 177.697 554.501  0.00  0.00     0.024 A 
HETATM   19 Cl           0      76.950 176.170 552.391  0.00  0.00    -0.084 Cl
HETATM   20  C           0      77.765 178.852 555.275  0.00  0.00     0.015 A 
ENDBRANCH   9  14
ENDBRANCH   1   7
BRANCH   4  21
HETATM   21  O           0      80.295 185.484 561.180  0.00  0.00    -0.352 OA
BRANCH  21  22
HETATM   22  C           0      79.838 186.758 561.647  0.00  0.00     0.171 C 
HETATM   23  C           0      80.839 187.262 562.670  0.00  0.00     0.034 C 
ENDBRANCH  21  22
ENDBRANCH   4  21
TORSDOF 4
ENDMDL
MODEL 4
REMARK VINA RESULT:    -8.250      1.111      1.914
REMARK INTER + INTRA:         -10.820
REMARK INTER:                 -10.146
REMARK INTRA:                  -0.674
REMARK UNBOUND:                -0.641
REMARK  4 active torsions:
REMARK  status: ('A' for Active; 'I' for Inactive)
REMARK    1  A    between atoms: C_1  and  C_7 
REMARK    2  A    between atoms: C_4  and  O_21 
REMARK    3  A    between atoms: C_9  and  C_14 
REMARK    4  A    between atoms: O_21  and  C_22 
ROOT
HETATM    1  C           0      79.291 186.368 560.152  0.00  0.00    -0.032 A 
HETATM    2  C           0      79.552 187.730 560.311  0.00  0.00     0.012 A 
HETATM    3  C           0      80.354 188.206 561.356  0.00  0.00     0.037 A 
HETATM    4  C           0      80.900 187.299 562.273  0.00  0.00     0.068 A 
HETATM    5  C           0      80.634 185.924 562.130  0.00  0.00     0.037 A 
HETATM    6  C           0      79.843 185.472 561.085  0.00  0.00     0.012 A 
ENDROOT
BRANCH   1   7
HETATM    7  C           0      78.454 185.883 558.995  0.00  0.00     0.160 C 
HETATM    8  C           0      79.000 184.671 558.203  0.00  0.00     0.095 C 
HETATM    9  C           0      77.748 183.850 557.949  0.00  0.00     0.068 C 
HETATM   10  N           0      76.730 184.246 558.639  0.00  0.00    -0.166 NA
HETATM   11  N           0      77.123 185.335 559.417  0.00  0.00    -0.195 N 
HETATM   12  C           0      76.170 186.114 559.943  0.00  0.00     0.202 C 
HETATM   13  N           0      75.382 186.811 560.449  0.00  0.00    -0.170 NA
BRANCH   9  14
HETATM   14  C           0      77.672 182.679 557.070  0.00  0.00    -0.010 A 
HETATM   15  C           0      77.145 181.465 557.541  0.00  0.00     0.015 A 
HETATM   16  C           0      77.067 180.343 556.714  0.00  0.00     0.024 A 
HETATM   17  C           0      77.525 180.434 555.401  0.00  0.00     0.034 A 
HETATM   18  C           0      78.055 181.630 554.906  0.00  0.00     0.024 A 
HETATM   19 Cl           0      77.434 179.030 554.352  0.00  0.00    -0.084 Cl
HETATM   20  C           0      78.126 182.743 555.737  0.00  0.00     0.015 A 
ENDBRANCH   9  14
ENDBRANCH   1   7
BRANCH   4  21
HETATM   21  O           0      81.687 187.643 563.329  0.00  0.00    -0.352 OA
BRANCH  21  22
HETATM   22  C           0      82.257 186.608 564.139  0.00  0.00     0.171 C 
HETATM   23  C           0      83.708 186.969 564.398  0.00  0.00     0.034 C 
ENDBRANCH  21  22
ENDBRANCH   4  21
TORSDOF 4
ENDMDL
MODEL 5
REMARK VINA RESULT:    -7.733      3.356      4.459
REMARK INTER + INTRA:         -10.183
REMARK INTER:                  -9.962
REMARK INTRA:                  -0.221
REMARK UNBOUND:                -0.641
REMARK  4 active torsions:
REMARK  status: ('A' for Active; 'I' for Inactive)
REMARK    1  A    between atoms: C_1  and  C_7 
REMARK    2  A    between atoms: C_4  and  O_21 
REMARK    3  A    between atoms: C_9  and  C_14 
REMARK    4  A    between atoms: O_21  and  C_22 
ROOT
HETATM    1  C           0      76.126 183.820 557.614  0.00  0.00    -0.032 A 
HETATM    2  C           0      77.338 184.494 557.773  0.00  0.00     0.012 A 
HETATM    3  C           0      77.391 185.887 557.901  0.00  0.00     0.037 A 
HETATM    4  C           0      76.203 186.628 557.859  0.00  0.00     0.068 A 
HETATM    5  C           0      74.976 185.961 557.687  0.00  0.00     0.037 A 
HETATM    6  C           0      74.944 184.580 557.568  0.00  0.00     0.012 A 
ENDROOT
BRANCH   1   7
HETATM    7  C           0      76.099 182.315 557.515  0.00  0.00     0.160 C 
HETATM    8  C           0      75.655 181.716 556.160  0.00  0.00     0.095 C 
HETATM    9  C           0      76.615 180.554 555.980  0.00  0.00     0.068 C 
HETATM   10  N           0      77.600 180.573 556.817  0.00  0.00    -0.166 NA
HETATM   11  N           0      77.456 181.690 557.641  0.00  0.00    -0.195 N 
HETATM   12  C           0      78.151 181.727 558.784  0.00  0.00     0.202 C 
HETATM   13  N           0      78.754 181.825 559.779  0.00  0.00    -0.170 NA
BRANCH   9  14
HETATM   14  C           0      76.513 179.529 554.937  0.00  0.00    -0.010 A 
HETATM   15  C           0      77.595 178.674 554.667  0.00  0.00     0.015 A 
HETATM   16  C           0      77.509 177.694 553.677  0.00  0.00     0.024 A 
HETATM   17  C           0      76.330 177.569 552.945  0.00  0.00     0.034 A 
HETATM   18  C           0      75.238 178.407 553.192  0.00  0.00     0.024 A 
HETATM   19 Cl           0      76.211 176.342 551.696  0.00  0.00    -0.084 Cl
HETATM   20  C           0      75.332 179.379 554.183  0.00  0.00     0.015 A 
ENDBRANCH   9  14
ENDBRANCH   1   7
BRANCH   4  21
HETATM   21  O           0      76.130 187.984 557.966  0.00  0.00    -0.352 OA
BRANCH  21  22
HETATM   22  C           0      75.612 188.560 559.172  0.00  0.00     0.171 C 
HETATM   23  C           0      76.751 188.636 560.173  0.00  0.00     0.034 C 
ENDBRANCH  21  22
ENDBRANCH   4  21
TORSDOF 4
ENDMDL
