MODEL 1
REMARK VINA RESULT:    -9.928      0.000      0.000
REMARK INTER + INTRA:         -12.898
REMARK INTER:                 -12.250
REMARK INTRA:                  -0.648
REMARK UNBOUND:                -0.648
REMARK  4 active torsions:
REMARK  status: ('A' for Active; 'I' for Inactive)
REMARK    1  A    between atoms: C_1  and  C_7 
REMARK    2  A    between atoms: C_4  and  O_21 
REMARK    3  A    between atoms: C_9  and  C_14 
REMARK    4  A    between atoms: O_21  and  C_22 
ROOT
HETATM    1  C           0      78.629 185.778 559.354  0.00  0.00    -0.032 A 
HETATM    2  C           0      79.175 184.917 560.308  0.00  0.00     0.012 A 
HETATM    3  C           0      79.777 185.403 561.475  0.00  0.00     0.037 A 
HETATM    4  C           0      79.845 186.785 561.690  0.00  0.00     0.068 A 
HETATM    5  C           0      79.308 187.664 560.731  0.00  0.00     0.037 A 
HETATM    6  C           0      78.711 187.163 559.584  0.00  0.00     0.012 A 
ENDROOT
BRANCH   1   7
HETATM    7  C           0      77.954 185.223 558.124  0.00  0.00     0.160 C 
HETATM    8  C           0      78.588 183.960 557.495  0.00  0.00     0.095 C 
HETATM    9  C           0      77.374 183.130 557.121  0.00  0.00     0.068 C 
HETATM   10  N           0      76.274 183.575 557.635  0.00  0.00    -0.166 NA
HETATM   11  N           0      76.570 184.710 558.390  0.00  0.00    -0.195 N 
HETATM   12  C           0      75.564 185.525 558.726  0.00  0.00     0.202 C 
HETATM   13  N           0      74.722 186.258 559.072  0.00  0.00    -0.170 NA
BRANCH   9  14
HETATM   14  C           0      77.405 181.905 556.316  0.00  0.00    -0.010 A 
HETATM   15  C           0      78.098 181.870 555.094  0.00  0.00     0.015 A 
HETATM   16  C           0      78.135 180.710 554.319  0.00  0.00     0.024 A 
HETATM   17  C           0      77.469 179.571 554.768  0.00  0.00     0.034 A 
HETATM   18  C           0      76.771 179.578 555.980  0.00  0.00     0.024 A 
HETATM   19 Cl           0      77.507 178.107 553.802  0.00  0.00    -0.084 Cl
HETATM   20  C           0      76.742 180.739 556.746  0.00  0.00     0.015 A 
ENDBRANCH   9  14
ENDBRANCH   1   7
BRANCH   4  21
HETATM   21  O           0      80.410 187.374 562.781  0.00  0.00    -0.352 OA
BRANCH  21  22
HETATM   22  C           0      81.837 187.440 562.876  0.00  0.00     0.171 C 
HETATM   23  C           0      82.263 188.842 562.481  0.00  0.00     0.034 C 
ENDBRANCH  21  22
ENDBRANCH   4  21
TORSDOF 4
ENDMDL
MODEL 2
REMARK VINA RESULT:    -9.549      4.092      8.357
REMARK INTER + INTRA:         -12.431
REMARK INTER:                 -11.784
REMARK INTRA:                  -0.646
REMARK UNBOUND:                -0.648
REMARK  4 active torsions:
REMARK  status: ('A' for Active; 'I' for Inactive)
REMARK    1  A    between atoms: C_1  and  C_7 
REMARK    2  A    between atoms: C_4  and  O_21 
REMARK    3  A    between atoms: C_9  and  C_14 
REMARK    4  A    between atoms: O_21  and  C_22 
ROOT
HETATM    1  C           0      77.398 182.040 557.123  0.00  0.00    -0.032 A 
HETATM    2  C           0      77.946 182.573 555.955  0.00  0.00     0.012 A 
HETATM    3  C           0      78.092 181.802 554.795  0.00  0.00     0.037 A 
HETATM    4  C           0      77.688 180.460 554.805  0.00  0.00     0.068 A 
HETATM    5  C           0      77.145 179.909 555.980  0.00  0.00     0.037 A 
HETATM    6  C           0      77.003 180.690 557.117  0.00  0.00     0.012 A 
ENDROOT
BRANCH   1   7
HETATM    7  C           0      77.221 182.907 558.345  0.00  0.00     0.160 C 
HETATM    8  C           0      78.510 183.454 559.001  0.00  0.00     0.095 C 
HETATM    9  C           0      78.122 184.877 559.360  0.00  0.00     0.068 C 
HETATM   10  N           0      77.010 185.253 558.819  0.00  0.00    -0.166 NA
HETATM   11  N           0      76.511 184.197 558.057  0.00  0.00    -0.195 N 
HETATM   12  C           0      75.225 184.232 557.692  0.00  0.00     0.202 C 
HETATM   13  N           0      74.117 184.224 557.322  0.00  0.00    -0.170 NA
BRANCH   9  14
HETATM   14  C           0      78.926 185.789 560.179  0.00  0.00    -0.010 A 
HETATM   15  C           0      78.942 187.168 559.906  0.00  0.00     0.015 A 
HETATM   16  C           0      79.703 188.046 560.679  0.00  0.00     0.024 A 
HETATM   17  C           0      80.460 187.542 561.734  0.00  0.00     0.034 A 
HETATM   18  C           0      80.463 186.174 562.027  0.00  0.00     0.024 A 
HETATM   19 Cl           0      81.423 188.637 562.711  0.00  0.00    -0.084 Cl
HETATM   20  C           0      79.700 185.307 561.253  0.00  0.00     0.015 A 
ENDBRANCH   9  14
ENDBRANCH   1   7
BRANCH   4  21
HETATM   21  O           0      77.785 179.613 553.743  0.00  0.00    -0.352 OA
BRANCH  21  22
HETATM   22  C           0      76.638 178.847 553.357  0.00  0.00     0.171 C 
HETATM   23  C           0      77.097 177.422 553.103  0.00  0.00     0.034 C 
ENDBRANCH  21  22
ENDBRANCH   4  21
TORSDOF 4
ENDMDL
MODEL 3
REMARK VINA RESULT:    -9.447      1.567      2.703
REMARK INTER + INTRA:         -12.304
REMARK INTER:                 -11.669
REMARK INTRA:                  -0.635
REMARK UNBOUND:                -0.648
REMARK  4 active torsions:
REMARK  status: ('A' for Active; 'I' for Inactive)
REMARK    1  A    between atoms: C_1  and  C_7 
REMARK    2  A    between atoms: C_4  and  O_21 
REMARK    3  A    between atoms: C_9  and  C_14 
REMARK    4  A    between atoms: O_21  and  C_22 
ROOT
HETATM    1  C           0      78.255 183.898 557.919  0.00  0.00    -0.032 A 
HETATM    2  C           0      78.668 185.231 557.903  0.00  0.00     0.012 A 
HETATM    3  C           0      79.395 185.787 558.963  0.00  0.00     0.037 A 
HETATM    4  C           0      79.707 184.993 560.074  0.00  0.00     0.068 A 
HETATM    5  C           0      79.286 183.651 560.107  0.00  0.00     0.037 A 
HETATM    6  C           0      78.572 183.117 559.045  0.00  0.00     0.012 A 
ENDROOT
BRANCH   1   7
HETATM    7  C           0      77.505 183.319 556.745  0.00  0.00     0.160 C 
HETATM    8  C           0      78.132 182.080 556.064  0.00  0.00     0.095 C 
HETATM    9  C           0      76.922 181.206 555.786  0.00  0.00     0.068 C 
HETATM   10  N           0      75.852 181.612 556.387  0.00  0.00    -0.166 NA
HETATM   11  N           0      76.165 182.756 557.119  0.00  0.00    -0.195 N 
HETATM   12  C           0      75.161 183.535 557.537  0.00  0.00     0.202 C 
HETATM   13  N           0      74.324 184.237 557.950  0.00  0.00    -0.170 NA
BRANCH   9  14
HETATM   14  C           0      76.933 179.983 554.978  0.00  0.00    -0.010 A 
HETATM   15  C           0      77.743 178.894 555.342  0.00  0.00     0.015 A 
HETATM   16  C           0      77.762 177.723 554.581  0.00  0.00     0.024 A 
HETATM   17  C           0      76.965 177.642 553.441  0.00  0.00     0.034 A 
HETATM   18  C           0      76.150 178.711 553.055  0.00  0.00     0.024 A 
HETATM   19 Cl           0      76.982 176.176 552.475  0.00  0.00    -0.084 Cl
HETATM   20  C           0      76.136 179.871 553.821  0.00  0.00     0.015 A 
ENDBRANCH   9  14
ENDBRANCH   1   7
BRANCH   4  21
HETATM   21  O           0      80.402 185.422 561.164  0.00  0.00    -0.352 OA
BRANCH  21  22
HETATM   22  C           0      79.922 186.559 561.892  0.00  0.00     0.171 C 
HETATM   23  C           0      81.066 187.079 562.743  0.00  0.00     0.034 C 
ENDBRANCH  21  22
ENDBRANCH   4  21
TORSDOF 4
ENDMDL
MODEL 4
REMARK VINA RESULT:    -7.811      3.477      4.563
REMARK INTER + INTRA:         -10.286
REMARK INTER:                 -10.053
REMARK INTRA:                  -0.233
REMARK UNBOUND:                -0.648
REMARK  4 active torsions:
REMARK  status: ('A' for Active; 'I' for Inactive)
REMARK    1  A    between atoms: C_1  and  C_7 
REMARK    2  A    between atoms: C_4  and  O_21 
REMARK    3  A    between atoms: C_9  and  C_14 
REMARK    4  A    between atoms: O_21  and  C_22 
ROOT
HETATM    1  C           0      76.029 183.708 557.658  0.00  0.00    -0.032 A 
HETATM    2  C           0      74.817 184.389 557.536  0.00  0.00     0.012 A 
HETATM    3  C           0      74.752 185.787 557.582  0.00  0.00     0.037 A 
HETATM    4  C           0      75.929 186.524 557.765  0.00  0.00     0.068 A 
HETATM    5  C           0      77.156 185.849 557.901  0.00  0.00     0.037 A 
HETATM    6  C           0      77.200 184.464 557.847  0.00  0.00     0.012 A 
ENDROOT
BRANCH   1   7
HETATM    7  C           0      76.070 182.203 557.569  0.00  0.00     0.160 C 
HETATM    8  C           0      75.626 181.574 556.227  0.00  0.00     0.095 C 
HETATM    9  C           0      76.635 180.458 556.034  0.00  0.00     0.068 C 
HETATM   10  N           0      77.636 180.528 556.848  0.00  0.00    -0.166 NA
HETATM   11  N           0      77.458 181.643 557.668  0.00  0.00    -0.195 N 
HETATM   12  C           0      78.175 181.720 558.795  0.00  0.00     0.202 C 
HETATM   13  N           0      78.794 181.854 559.776  0.00  0.00    -0.170 NA
BRANCH   9  14
HETATM   14  C           0      76.558 179.421 554.999  0.00  0.00    -0.010 A 
HETATM   15  C           0      75.491 179.402 554.086  0.00  0.00     0.015 A 
HETATM   16  C           0      75.407 178.421 553.096  0.00  0.00     0.024 A 
HETATM   17  C           0      76.399 177.446 553.020  0.00  0.00     0.034 A 
HETATM   18  C           0      77.473 177.441 553.917  0.00  0.00     0.024 A 
HETATM   19 Cl           0      76.303 176.206 551.782  0.00  0.00    -0.084 Cl
HETATM   20  C           0      77.548 178.424 554.898  0.00  0.00     0.015 A 
ENDBRANCH   9  14
ENDBRANCH   1   7
BRANCH   4  21
HETATM   21  O           0      75.991 187.883 557.830  0.00  0.00    -0.352 OA
BRANCH  21  22
HETATM   22  C           0      75.283 188.563 558.874  0.00  0.00     0.171 C 
HETATM   23  C           0      76.258 188.805 560.012  0.00  0.00     0.034 C 
ENDBRANCH  21  22
ENDBRANCH   4  21
TORSDOF 4
ENDMDL
MODEL 5
REMARK VINA RESULT:    -7.497      2.071      2.853
REMARK INTER + INTRA:          -9.899
REMARK INTER:                  -9.252
REMARK INTRA:                  -0.647
REMARK UNBOUND:                -0.648
REMARK  4 active torsions:
REMARK  status: ('A' for Active; 'I' for Inactive)
REMARK    1  A    between atoms: C_1  and  C_7 
REMARK    2  A    between atoms: C_4  and  O_21 
REMARK    3  A    between atoms: C_9  and  C_14 
REMARK    4  A    between atoms: O_21  and  C_22 
ROOT
HETATM    1  C           0      78.814 185.466 559.776  0.00  0.00    -0.032 A 
HETATM    2  C           0      78.890 186.025 561.052  0.00  0.00     0.012 A 
HETATM    3  C           0      79.408 187.309 561.261  0.00  0.00     0.037 A 
HETATM    4  C           0      79.873 188.050 560.166  0.00  0.00     0.068 A 
HETATM    5  C           0      79.812 187.492 558.876  0.00  0.00     0.037 A 
HETATM    6  C           0      79.290 186.221 558.689  0.00  0.00     0.012 A 
ENDROOT
BRANCH   1   7
HETATM    7  C           0      78.217 184.094 559.580  0.00  0.00     0.160 C 
HETATM    8  C           0      77.392 183.874 558.290  0.00  0.00     0.095 C 
HETATM    9  C           0      77.817 182.482 557.858  0.00  0.00     0.068 C 
HETATM   10  N           0      78.849 182.042 558.500  0.00  0.00    -0.166 NA
HETATM   11  N           0      79.250 183.019 559.412  0.00  0.00    -0.195 N 
HETATM   12  C           0      80.066 182.658 560.408  0.00  0.00     0.202 C 
HETATM   13  N           0      80.800 182.406 561.281  0.00  0.00    -0.170 NA
BRANCH   9  14
HETATM   14  C           0      77.193 181.706 556.782  0.00  0.00    -0.010 A 
HETATM   15  C           0      76.099 180.865 557.051  0.00  0.00     0.015 A 
HETATM   16  C           0      75.496 180.121 556.035  0.00  0.00     0.024 A 
HETATM   17  C           0      75.993 180.216 554.737  0.00  0.00     0.034 A 
HETATM   18  C           0      77.081 181.044 554.442  0.00  0.00     0.024 A 
HETATM   19 Cl           0      75.244 179.283 553.452  0.00  0.00    -0.084 Cl
HETATM   20  C           0      77.673 181.783 555.460  0.00  0.00     0.015 A 
ENDBRANCH   9  14
ENDBRANCH   1   7
BRANCH   4  21
HETATM   21  O           0      80.401 189.303 560.245  0.00  0.00    -0.352 OA
BRANCH  21  22
HETATM   22  C           0      80.907 189.767 561.502  0.00  0.00     0.171 C 
HETATM   23  C           0      82.349 189.309 561.618  0.00  0.00     0.034 C 
ENDBRANCH  21  22
ENDBRANCH   4  21
TORSDOF 4
ENDMDL
MODEL 6
REMARK VINA RESULT:    -7.087      4.835      8.709
REMARK INTER + INTRA:          -9.392
REMARK INTER:                  -8.833
REMARK INTRA:                  -0.559
REMARK UNBOUND:                -0.648
REMARK  4 active torsions:
REMARK  status: ('A' for Active; 'I' for Inactive)
REMARK    1  A    between atoms: C_1  and  C_7 
REMARK    2  A    between atoms: C_4  and  O_21 
REMARK    3  A    between atoms: C_9  and  C_14 
REMARK    4  A    between atoms: O_21  and  C_22 
ROOT
HETATM    1  C           0      77.172 182.325 556.488  0.00  0.00    -0.032 A 
HETATM    2  C           0      77.818 182.030 555.286  0.00  0.00     0.012 A 
HETATM    3  C           0      77.448 180.929 554.505  0.00  0.00     0.037 A 
HETATM    4  C           0      76.413 180.093 554.941  0.00  0.00     0.068 A 
HETATM    5  C           0      75.762 180.372 556.157  0.00  0.00     0.037 A 
HETATM    6  C           0      76.139 181.471 556.913  0.00  0.00     0.012 A 
ENDROOT
BRANCH   1   7
HETATM    7  C           0      77.570 183.539 557.289  0.00  0.00     0.160 C 
HETATM    8  C           0      76.599 184.743 557.253  0.00  0.00     0.095 C 
HETATM    9  C           0      76.611 185.221 558.694  0.00  0.00     0.068 C 
HETATM   10  N           0      77.179 184.389 559.503  0.00  0.00    -0.166 NA
HETATM   11  N           0      77.611 183.285 558.767  0.00  0.00    -0.195 N 
HETATM   12  C           0      78.514 182.469 559.321  0.00  0.00     0.202 C 
HETATM   13  N           0      79.281 181.708 559.765  0.00  0.00    -0.170 NA
BRANCH   9  14
HETATM   14  C           0      75.996 186.463 559.175  0.00  0.00    -0.010 A 
HETATM   15  C           0      74.698 186.454 559.714  0.00  0.00     0.015 A 
HETATM   16  C           0      74.102 187.629 560.175  0.00  0.00     0.024 A 
HETATM   17  C           0      74.810 188.827 560.096  0.00  0.00     0.034 A 
HETATM   18  C           0      76.103 188.863 559.564  0.00  0.00     0.024 A 
HETATM   19 Cl           0      74.070 190.311 560.671  0.00  0.00    -0.084 Cl
HETATM   20  C           0      76.689 187.687 559.108  0.00  0.00     0.015 A 
ENDBRANCH   9  14
ENDBRANCH   1   7
BRANCH   4  21
HETATM   21  O           0      75.969 178.992 554.272  0.00  0.00    -0.352 OA
BRANCH  21  22
HETATM   22  C           0      76.643 178.588 553.074  0.00  0.00     0.171 C 
HETATM   23  C           0      76.411 177.099 552.893  0.00  0.00     0.034 C 
ENDBRANCH  21  22
ENDBRANCH   4  21
TORSDOF 4
ENDMDL
