MODEL 1
REMARK VINA RESULT:    -9.936      0.000      0.000
REMARK INTER + INTRA:         -12.903
REMARK INTER:                 -12.259
REMARK INTRA:                  -0.644
REMARK UNBOUND:                -0.644
REMARK  4 active torsions:
REMARK  status: ('A' for Active; 'I' for Inactive)
REMARK    1  A    between atoms: C_1  and  C_7 
REMARK    2  A    between atoms: C_4  and  O_21 
REMARK    3  A    between atoms: C_9  and  C_14 
REMARK    4  A    between atoms: O_21  and  C_22 
ROOT
HETATM    1  C           0      78.666 185.817 559.358  0.00  0.00    -0.032 A 
HETATM    2  C           0      79.253 184.957 560.287  0.00  0.00     0.012 A 
HETATM    3  C           0      79.857 185.439 561.455  0.00  0.00     0.037 A 
HETATM    4  C           0      79.885 186.819 561.695  0.00  0.00     0.068 A 
HETATM    5  C           0      79.307 187.698 560.761  0.00  0.00     0.037 A 
HETATM    6  C           0      78.708 187.200 559.613  0.00  0.00     0.012 A 
ENDROOT
BRANCH   1   7
HETATM    7  C           0      77.991 185.264 558.128  0.00  0.00     0.160 C 
HETATM    8  C           0      78.621 183.999 557.499  0.00  0.00     0.095 C 
HETATM    9  C           0      77.404 183.173 557.124  0.00  0.00     0.068 C 
HETATM   10  N           0      76.306 183.622 557.637  0.00  0.00    -0.166 NA
HETATM   11  N           0      76.604 184.756 558.392  0.00  0.00    -0.195 N 
HETATM   12  C           0      75.601 185.575 558.728  0.00  0.00     0.202 C 
HETATM   13  N           0      74.761 186.310 559.072  0.00  0.00    -0.170 NA
BRANCH   9  14
HETATM   14  C           0      77.432 181.948 556.319  0.00  0.00    -0.010 A 
HETATM   15  C           0      76.716 180.810 556.726  0.00  0.00     0.015 A 
HETATM   16  C           0      76.734 179.637 555.968  0.00  0.00     0.024 A 
HETATM   17  C           0      77.480 179.600 554.792  0.00  0.00     0.034 A 
HETATM   18  C           0      78.204 180.718 554.364  0.00  0.00     0.024 A 
HETATM   19 Cl           0      77.513 178.132 553.833  0.00  0.00    -0.084 Cl
HETATM   20  C           0      78.177 181.882 555.125  0.00  0.00     0.015 A 
ENDBRANCH   9  14
ENDBRANCH   1   7
BRANCH   4  21
HETATM   21  O           0      80.447 187.405 562.789  0.00  0.00    -0.352 OA
BRANCH  21  22
HETATM   22  C           0      81.874 187.462 562.892  0.00  0.00     0.171 C 
HETATM   23  C           0      82.315 188.845 562.448  0.00  0.00     0.034 C 
ENDBRANCH  21  22
ENDBRANCH   4  21
TORSDOF 4
ENDMDL
MODEL 2
REMARK VINA RESULT:    -9.557      4.092      8.384
REMARK INTER + INTRA:         -12.437
REMARK INTER:                 -11.774
REMARK INTRA:                  -0.663
REMARK UNBOUND:                -0.644
REMARK  4 active torsions:
REMARK  status: ('A' for Active; 'I' for Inactive)
REMARK    1  A    between atoms: C_1  and  C_7 
REMARK    2  A    between atoms: C_4  and  O_21 
REMARK    3  A    between atoms: C_9  and  C_14 
REMARK    4  A    between atoms: O_21  and  C_22 
ROOT
HETATM    1  C           0      77.420 182.076 557.151  0.00  0.00    -0.032 A 
HETATM    2  C           0      78.033 182.592 556.008  0.00  0.00     0.012 A 
HETATM    3  C           0      78.173 181.829 554.843  0.00  0.00     0.037 A 
HETATM    4  C           0      77.698 180.512 554.821  0.00  0.00     0.068 A 
HETATM    5  C           0      77.088 179.976 555.970  0.00  0.00     0.037 A 
HETATM    6  C           0      76.953 180.750 557.113  0.00  0.00     0.012 A 
ENDROOT
BRANCH   1   7
HETATM    7  C           0      77.251 182.935 558.379  0.00  0.00     0.160 C 
HETATM    8  C           0      78.545 183.482 559.026  0.00  0.00     0.095 C 
HETATM    9  C           0      78.156 184.902 559.397  0.00  0.00     0.068 C 
HETATM   10  N           0      77.038 185.278 558.868  0.00  0.00    -0.166 NA
HETATM   11  N           0      76.535 184.224 558.105  0.00  0.00    -0.195 N 
HETATM   12  C           0      75.245 184.258 557.752  0.00  0.00     0.202 C 
HETATM   13  N           0      74.135 184.248 557.392  0.00  0.00    -0.170 NA
BRANCH   9  14
HETATM   14  C           0      78.964 185.813 560.213  0.00  0.00    -0.010 A 
HETATM   15  C           0      79.041 187.179 559.896  0.00  0.00     0.015 A 
HETATM   16  C           0      79.808 188.056 560.666  0.00  0.00     0.024 A 
HETATM   17  C           0      80.508 187.561 561.764  0.00  0.00     0.034 A 
HETATM   18  C           0      80.450 186.205 562.102  0.00  0.00     0.024 A 
HETATM   19 Cl           0      81.477 188.653 562.738  0.00  0.00    -0.084 Cl
HETATM   20  C           0      79.682 185.340 561.330  0.00  0.00     0.015 A 
ENDBRANCH   9  14
ENDBRANCH   1   7
BRANCH   4  21
HETATM   21  O           0      77.782 179.674 553.750  0.00  0.00    -0.352 OA
BRANCH  21  22
HETATM   22  C           0      76.633 178.905 553.376  0.00  0.00     0.171 C 
HETATM   23  C           0      77.088 177.475 553.147  0.00  0.00     0.034 C 
ENDBRANCH  21  22
ENDBRANCH   4  21
TORSDOF 4
ENDMDL
MODEL 3
REMARK VINA RESULT:    -7.626      2.026      2.721
REMARK INTER + INTRA:         -10.054
REMARK INTER:                  -9.389
REMARK INTRA:                  -0.665
REMARK UNBOUND:                -0.644
REMARK  4 active torsions:
REMARK  status: ('A' for Active; 'I' for Inactive)
REMARK    1  A    between atoms: C_1  and  C_7 
REMARK    2  A    between atoms: C_4  and  O_21 
REMARK    3  A    between atoms: C_9  and  C_14 
REMARK    4  A    between atoms: O_21  and  C_22 
ROOT
HETATM    1  C           0      78.669 185.460 559.973  0.00  0.00    -0.032 A 
HETATM    2  C           0      79.057 186.285 558.916  0.00  0.00     0.012 A 
HETATM    3  C           0      79.570 187.569 559.138  0.00  0.00     0.037 A 
HETATM    4  C           0      79.687 188.046 560.450  0.00  0.00     0.068 A 
HETATM    5  C           0      79.287 187.229 561.523  0.00  0.00     0.037 A 
HETATM    6  C           0      78.788 185.958 561.283  0.00  0.00     0.012 A 
ENDROOT
BRANCH   1   7
HETATM    7  C           0      78.154 184.068 559.703  0.00  0.00     0.160 C 
HETATM    8  C           0      77.315 183.875 558.418  0.00  0.00     0.095 C 
HETATM    9  C           0      77.816 182.541 557.893  0.00  0.00     0.068 C 
HETATM   10  N           0      78.887 182.130 558.487  0.00  0.00    -0.166 NA
HETATM   11  N           0      79.248 183.073 559.449  0.00  0.00    -0.195 N 
HETATM   12  C           0      80.108 182.705 560.405  0.00  0.00     0.202 C 
HETATM   13  N           0      80.876 182.448 561.246  0.00  0.00    -0.170 NA
BRANCH   9  14
HETATM   14  C           0      77.216 181.793 556.783  0.00  0.00    -0.010 A 
HETATM   15  C           0      76.062 181.017 556.987  0.00  0.00     0.015 A 
HETATM   16  C           0      75.482 180.301 555.938  0.00  0.00     0.024 A 
HETATM   17  C           0      76.063 180.358 554.673  0.00  0.00     0.034 A 
HETATM   18  C           0      77.212 181.122 554.443  0.00  0.00     0.024 A 
HETATM   19 Cl           0      75.344 179.460 553.348  0.00  0.00    -0.084 Cl
HETATM   20  C           0      77.781 181.834 555.494  0.00  0.00     0.015 A 
ENDBRANCH   9  14
ENDBRANCH   1   7
BRANCH   4  21
HETATM   21  O           0      80.164 189.276 560.788  0.00  0.00    -0.352 OA
BRANCH  21  22
HETATM   22  C           0      81.558 189.555 560.612  0.00  0.00     0.171 C 
HETATM   23  C           0      82.247 189.329 561.945  0.00  0.00     0.034 C 
ENDBRANCH  21  22
ENDBRANCH   4  21
TORSDOF 4
ENDMDL
MODEL 4
REMARK VINA RESULT:    -7.182      1.605      2.357
REMARK INTER + INTRA:          -9.505
REMARK INTER:                  -9.002
REMARK INTRA:                  -0.503
REMARK UNBOUND:                -0.644
REMARK  4 active torsions:
REMARK  status: ('A' for Active; 'I' for Inactive)
REMARK    1  A    between atoms: C_1  and  C_7 
REMARK    2  A    between atoms: C_4  and  O_21 
REMARK    3  A    between atoms: C_9  and  C_14 
REMARK    4  A    between atoms: O_21  and  C_22 
ROOT
HETATM    1  C           0      79.456 186.329 560.592  0.00  0.00    -0.032 A 
HETATM    2  C           0      79.729 187.654 560.933  0.00  0.00     0.012 A 
HETATM    3  C           0      80.511 187.978 562.048  0.00  0.00     0.037 A 
HETATM    4  C           0      81.026 186.951 562.850  0.00  0.00     0.068 A 
HETATM    5  C           0      80.748 185.611 562.523  0.00  0.00     0.037 A 
HETATM    6  C           0      79.975 185.311 561.411  0.00  0.00     0.012 A 
ENDROOT
BRANCH   1   7
HETATM    7  C           0      78.640 186.011 559.363  0.00  0.00     0.160 C 
HETATM    8  C           0      78.749 184.571 558.811  0.00  0.00     0.095 C 
HETATM    9  C           0      77.315 184.252 558.429  0.00  0.00     0.068 C 
HETATM   10  N           0      76.463 185.111 558.885  0.00  0.00    -0.166 NA
HETATM   11  N           0      77.160 186.083 559.602  0.00  0.00    -0.195 N 
HETATM   12  C           0      76.541 187.239 559.868  0.00  0.00     0.202 C 
HETATM   13  N           0      76.040 188.255 560.153  0.00  0.00    -0.170 NA
BRANCH   9  14
HETATM   14  C           0      76.885 183.068 557.678  0.00  0.00    -0.010 A 
HETATM   15  C           0      75.531 182.880 557.355  0.00  0.00     0.015 A 
HETATM   16  C           0      75.110 181.757 556.640  0.00  0.00     0.024 A 
HETATM   17  C           0      76.052 180.809 556.247  0.00  0.00     0.034 A 
HETATM   18  C           0      77.407 180.971 556.556  0.00  0.00     0.024 A 
HETATM   19 Cl           0      75.535 179.393 555.350  0.00  0.00    -0.084 Cl
HETATM   20  C           0      77.816 182.094 557.267  0.00  0.00     0.015 A 
ENDBRANCH   9  14
ENDBRANCH   1   7
BRANCH   4  21
HETATM   21  O           0      81.793 187.143 563.959  0.00  0.00    -0.352 OA
BRANCH  21  22
HETATM   22  C           0      83.188 186.825 563.904  0.00  0.00     0.171 C 
HETATM   23  C           0      83.591 186.273 565.260  0.00  0.00     0.034 C 
ENDBRANCH  21  22
ENDBRANCH   4  21
TORSDOF 4
ENDMDL
