REMARK  4 active torsions:
REMARK  status: ('A' for Active; 'I' for Inactive)
REMARK    1  A    between atoms: C_1  and  C_7 
REMARK    2  A    between atoms: C_4  and  O_21 
REMARK    3  A    between atoms: C_9  and  C_14 
REMARK    4  A    between atoms: O_21  and  C_22 
ROOT
HETATM    1  C           0      -2.007   0.308   0.437  0.00  0.00    -0.032 A 
HETATM    2  C           0      -3.041   0.287   1.374  0.00  0.00     0.012 A 
HETATM    3  C           0      -4.320  -0.178   1.045  0.00  0.00     0.037 A 
HETATM    4  C           0      -4.576  -0.624  -0.258  0.00  0.00     0.068 A 
HETATM    5  C           0      -3.545  -0.597  -1.215  0.00  0.00     0.037 A 
HETATM    6  C           0      -2.283  -0.138  -0.868  0.00  0.00     0.012 A 
ENDROOT
BRANCH   1   7
HETATM    7  C           0      -0.630   0.781   0.832  0.00  0.00     0.160 C 
HETATM    8  C           0       0.510  -0.262   0.758  0.00  0.00     0.095 C 
HETATM    9  C           0       1.661   0.545   0.185  0.00  0.00     0.068 C 
HETATM   10  N           0       1.297   1.697  -0.274  0.00  0.00    -0.166 NA
HETATM   11  N           0      -0.079   1.830  -0.088  0.00  0.00    -0.195 N 
HETATM   12  C           0      -0.613   3.054  -0.168  0.00  0.00     0.202 C 
HETATM   13  N           0      -1.137   4.094  -0.254  0.00  0.00    -0.170 NA
BRANCH   9  14
HETATM   14  C           0       3.048   0.080   0.082  0.00  0.00    -0.010 A 
HETATM   15  C           0       3.406  -1.203   0.529  0.00  0.00     0.015 A 
HETATM   16  C           0       4.723  -1.657   0.436  0.00  0.00     0.024 A 
HETATM   17  C           0       5.694  -0.818  -0.107  0.00  0.00     0.034 A 
HETATM   18  C           0       5.365   0.464  -0.559  0.00  0.00     0.024 A 
HETATM   19 Cl           0       7.353  -1.377  -0.227  0.00  0.00    -0.084 Cl
HETATM   20  C           0       4.050   0.906  -0.464  0.00  0.00     0.015 A 
ENDBRANCH   9  14
ENDBRANCH   1   7
BRANCH   4  21
HETATM   21  O           0      -5.778  -1.092  -0.696  0.00  0.00    -0.352 OA
BRANCH  21  22
HETATM   22  C           0      -6.884  -1.128   0.213  0.00  0.00     0.171 C 
HETATM   23  C           0      -8.081  -1.684  -0.537  0.00  0.00     0.034 C 
ENDBRANCH  21  22
ENDBRANCH   4  21
TORSDOF 4
